@<TRIPOS>MOLECULE
extracted_ligand5369.pdb
82 86 1 0 0
SMALL
NO_CHARGES


@<TRIPOS>ATOM
      1 C01       -12.5700   -0.8300   56.1110 C.3       1 LIG    0.0000
      2 N02       -11.4820   -1.0450   57.0950 N.am      1 LIG    0.0000
      3 C03       -11.5140   -2.1130   58.0900 C.3       1 LIG    0.0000
      4 C04       -11.5810   -1.3300   59.3950 C.ar      1 LIG    0.0000
      5 C05       -12.6240   -0.4280   59.4780 C.ar      1 LIG    0.0000
      6 C06       -12.7820    0.3590   60.5960 C.ar      1 LIG    0.0000
      7 C07       -11.8630    0.2590   61.6260 C.ar      1 LIG    0.0000
      8 C08       -10.7900   -0.6220   61.5330 C.ar      1 LIG    0.0000
      9 C09       -10.6250   -1.4210   60.4110 C.ar      1 LIG    0.0000
     10 C10        -9.4180   -2.3810   60.3550 C.3       1 LIG    0.0000
     11 C11       -12.7010   -3.0390   57.8330 C.ar      1 LIG    0.0000
     12 N12       -13.6840   -3.0140   58.7140 N.ar      1 LIG    0.0000
     13 C13       -14.7560   -3.7660   58.5830 C.ar      1 LIG    0.0000
     14 C14       -14.8700   -4.6100   57.4850 C.ar      1 LIG    0.0000
     15 C15       -13.8640   -4.6630   56.5270 C.ar      1 LIG    0.0000
     16 C16       -12.7420   -3.8680   56.7000 C.ar      1 LIG    0.0000
     17 C17       -11.6340   -3.9270   55.6340 C.3       1 LIG    0.0000
     18 C18       -10.3200   -0.1390   57.1700 C.2       1 LIG    0.0000
     19 O19        -9.3990   -0.2470   57.9540 O.2       1 LIG    0.0000
     20 C20       -10.3010    0.9560   56.1250 C.3       1 LIG    0.0000
     21 C21        -9.3600    2.0040   56.5860 C.3       1 LIG    0.0000
     22 C22        -9.2400    2.9740   55.4270 C.3       1 LIG    0.0000
     23 N23        -8.7090    2.2230   54.2630 N.4       1 LIG    0.0000
     24 C24        -7.9070    3.0160   53.3460 C.3       1 LIG    0.0000
     25 C25        -8.5100    3.0460   51.9420 C.3       1 LIG    0.0000
     26 O26        -7.5630    3.5970   51.0890 O.3       1 LIG    0.0000
     27 C27        -6.2780    3.0460   50.9450 C.ar      1 LIG    0.0000
     28 C28        -5.9440    1.6860   50.9820 C.ar      1 LIG    0.0000
     29 CL29       -7.0640    0.3310   51.2820 Cl        1 LIG    0.0000
     30 C30        -4.6390    1.3160   50.7830 C.ar      1 LIG    0.0000
     31 C31        -3.6890    2.2810   50.5650 C.ar      1 LIG    0.0000
     32 N32        -2.3280    1.8840   50.3530 N.pl3     1 LIG    0.0000
     33 C33        -1.9830    1.6740   48.9790 C.ar      1 LIG    0.0000
     34 C34        -0.7090    1.2310   48.7320 C.ar      1 LIG    0.0000
     35 C35        -0.3540    1.0110   47.4300 C.ar      1 LIG    0.0000
     36 C36        -1.2550    1.2720   46.4050 C.ar      1 LIG    0.0000
     37 C37        -2.5510    1.6940   46.6470 C.ar      1 LIG    0.0000
     38 C38        -2.9110    1.9090   47.9580 C.ar      1 LIG    0.0000
     39 C39        -0.7680    0.9780   45.0050 C.ar      1 LIG    0.0000
     40 C43         1.0770    0.4700   43.5720 C.ar      1 LIG    0.0000
     41 C44         0.5870    0.7640   44.8250 C.ar      1 LIG    0.0000
     42 C48        -4.0050    3.6150   50.5080 C.ar      1 LIG    0.0000
     43 C49        -5.3020    3.9930   50.7060 C.ar      1 LIG    0.0000
     44 C50        -9.7120    1.2810   53.6980 C.3       1 LIG    0.0000
     45 C51        -9.9350    0.2950   54.8240 C.3       1 LIG    0.0000
     46 H011      -12.2120   -0.3900   55.3240 H         1 LIG    0.0000
     47 H012      -13.2590   -0.2730   56.5070 H         1 LIG    0.0000
     48 H013      -12.9510   -1.6850   55.8580 H         1 LIG    0.0000
     49 H031      -10.6870   -2.6190   58.0540 H         1 LIG    0.0000
     50 H051      -13.2430   -0.3750   58.7860 H         1 LIG    0.0000
     51 H061      -13.5010    0.9460   60.6610 H         1 LIG    0.0000
     52 H071      -11.9600    0.7890   62.3840 H         1 LIG    0.0000
     53 H081      -10.1780   -0.6780   62.2310 H         1 LIG    0.0000
     54 H101       -8.9910   -2.3140   59.4870 H         1 LIG    0.0000
     55 H102       -8.7810   -2.1410   61.0470 H         1 LIG    0.0000
     56 H103       -9.7220   -3.2910   60.4970 H         1 LIG    0.0000
     57 H171      -11.8180   -4.6520   55.0160 H         1 LIG    0.0000
     58 H172      -10.7790   -4.0790   56.0650 H         1 LIG    0.0000
     59 H173      -11.6080   -3.0880   55.1490 H         1 LIG    0.0000
     60 H201      -11.1880    1.3410   56.0450 H         1 LIG    0.0000
     61 H211       -9.7190    2.4560   57.3650 H         1 LIG    0.0000
     62 H212       -8.4960    1.6120   56.7860 H         1 LIG    0.0000
     63 H221       -8.6280    3.6890   55.6620 H         1 LIG    0.0000
     64 H222      -10.1130    3.3370   55.2130 H         1 LIG    0.0000
     65 H241       -7.0150    2.6370   53.2980 H         1 LIG    0.0000
     66 H242       -7.8460    3.9240   53.6830 H         1 LIG    0.0000
     67 H251       -9.3120    3.5910   51.9400 H         1 LIG    0.0000
     68 H252       -8.7240    2.1440   51.6570 H         1 LIG    0.0000
     69 H301       -4.3960    0.4190   50.8210 H         1 LIG    0.0000
     70 H321       -1.9000    1.4680   50.9720 H         1 LIG    0.0000
     71 H341       -0.1100    1.0780   49.4260 H         1 LIG    0.0000
     72 H351        0.5050    0.7180   47.2280 H         1 LIG    0.0000
     73 H371       -3.1470    1.8490   45.9500 H         1 LIG    0.0000
     74 H381       -3.7660    2.2120   48.1640 H         1 LIG    0.0000
     75 H431        1.9880    0.3270   43.4480 H         1 LIG    0.0000
     76 H441        1.1690    0.8280   45.5480 H         1 LIG    0.0000
     77 H481       -3.3450    4.2510   50.3480 H         1 LIG    0.0000
     78 H491       -5.5320    4.8940   50.6660 H         1 LIG    0.0000
     79 H501       -9.3540    0.8300   52.9170 H         1 LIG    0.0000
     80 H502      -10.5360    1.7460   53.4850 H         1 LIG    0.0000
     81 H511       -9.1210   -0.2160   54.9530 H         1 LIG    0.0000
     82 H512      -10.6510   -0.3090   54.5700 H         1 LIG    0.0000
@<TRIPOS>BOND
     1    1    2 1
     2    1   46 1
     3    1   47 1
     4    1   48 1
     5    3    2 1
     6    3    4 1
     7    3   11 1
     8    3   49 1
     9    4    5 ar
    10    4    9 ar
    11    5    6 ar
    12    5   50 1
    13    6    7 ar
    14    6   51 1
    15    7    8 ar
    16    7   52 1
    17    8    9 ar
    18    8   53 1
    19    9   10 1
    20   10   54 1
    21   10   55 1
    22   10   56 1
    23   11   12 ar
    24   11   16 ar
    25   13   12 ar
    26   13   14 ar
    27   14   15 ar
    28   15   16 ar
    29   16   17 1
    30   17   57 1
    31   17   58 1
    32   17   59 1
    33   18    2 am
    34   18   19 2
    35   18   20 1
    36   20   21 1
    37   20   45 1
    38   20   60 1
    39   21   22 1
    40   21   61 1
    41   21   62 1
    42   22   23 1
    43   22   63 1
    44   22   64 1
    45   24   23 1
    46   24   25 1
    47   24   65 1
    48   24   66 1
    49   25   26 1
    50   25   67 1
    51   25   68 1
    52   27   26 1
    53   27   28 ar
    54   27   43 ar
    55   28   29 1
    56   28   30 ar
    57   30   31 ar
    58   30   69 1
    59   31   32 1
    60   31   42 ar
    61   33   32 1
    62   33   34 ar
    63   33   38 ar
    64   34   35 ar
    65   34   71 1
    66   35   36 ar
    67   35   72 1
    68   36   37 ar
    69   36   39 1
    70   37   38 ar
    71   37   73 1
    72   38   74 1
    73   39   41 ar
    74   40   41 ar
    75   40   75 1
    76   41   76 1
    77   42   43 ar
    78   42   77 1
    79   43   78 1
    80   44   23 1
    81   44   45 1
    82   44   79 1
    83   44   80 1
    84   45   81 1
    85   45   82 1
    86   70   32 1
@<TRIPOS>SUBSTRUCTURE
     1 LIG     1 RESIDUE           4 D     LIG     0 ROOT
