@<TRIPOS>MOLECULE
oleObject5.pdb
49 51 1 0 0
SMALL
NO_CHARGES


@<TRIPOS>ATOM
      1 C          -1.4137   -1.4834    1.4797 C.3       1 UNL   -0.0394
      2 C          -0.7070   -0.6169    0.4418 C.ar      1 UNL   -0.0456
      3 C          -1.2383    0.6611    0.1786 C.ar      1 UNL   -0.0590
      4 C          -0.6522    1.5014   -0.7784 C.ar      1 UNL   -0.0620
      5 C           0.4731    1.0672   -1.4893 C.ar      1 UNL   -0.0619
      6 C           1.0098   -0.2036   -1.2383 C.ar      1 UNL   -0.0565
      7 C           0.4388   -1.0577   -0.2709 C.ar      1 UNL   -0.0188
      8 C           1.0588   -2.4469   -0.0680 C.3       1 UNL    0.0906
      9 N           0.7069   -3.3114   -1.2083 N.am      1 UNL   -0.3025
     10 C          -0.4594   -4.0533   -1.2606 C.2       1 UNL    0.2156
     11 O          -1.0385   -4.4201   -0.2526 O.2       1 UNL   -0.2774
     12 C          -1.0628   -4.1702   -2.6732 C.3       1 UNL    0.0382
     13 C          -1.5533   -2.7943   -3.1983 C.3       1 UNL   -0.0292
     14 C          -2.8615   -2.3515   -2.5074 C.3       1 UNL   -0.0041
     15 N          -3.9109   -3.3715   -2.6750 N.4       1 UNL   -0.3167
     16 C          -3.5360   -4.6907   -2.1355 C.3       1 UNL   -0.0041
     17 C          -2.2145   -5.2093   -2.7566 C.3       1 UNL   -0.0292
     18 C           2.5756   -2.3663    0.1759 C.ar      1 UNL    0.0681
     19 N           3.3751   -2.6293   -0.8864 N.ar      1 UNL   -0.2587
     20 C           4.7118   -2.5662   -0.7396 C.ar      1 UNL    0.0272
     21 C           5.3242   -2.2327    0.4772 C.ar      1 UNL   -0.0435
     22 C           4.5100   -1.9528    1.5838 C.ar      1 UNL   -0.0559
     23 C           3.1109   -2.0168    1.4412 C.ar      1 UNL   -0.0272
     24 C           2.2259   -1.7039    2.6412 C.3       1 UNL   -0.0379
     25 H          -2.1852   -0.9192    2.0182 H         1 UNL    0.0280
     26 H          -0.7179   -1.8669    2.2341 H         1 UNL    0.0280
     27 H          -1.9124   -2.3365    1.0071 H         1 UNL    0.0280
     28 H          -2.1172    1.0065    0.7160 H         1 UNL    0.0626
     29 H          -1.0735    2.4837   -0.9720 H         1 UNL    0.0623
     30 H           0.9269    1.7115   -2.2369 H         1 UNL    0.0623
     31 H           1.8750   -0.5275   -1.8090 H         1 UNL    0.0627
     32 H           0.6278   -2.9132    0.8229 H         1 UNL    0.0624
     33 H           1.1208   -3.0555   -2.0952 H         1 UNL    0.1504
     34 H          -0.2515   -4.5152   -3.3273 H         1 UNL    0.0402
     35 H          -1.7324   -2.8671   -4.2788 H         1 UNL    0.0288
     36 H          -0.7822   -2.0257   -3.0631 H         1 UNL    0.0288
     37 H          -3.1975   -1.3999   -2.9382 H         1 UNL    0.0428
     38 H          -2.6713   -2.1863   -1.4388 H         1 UNL    0.0428
     39 H          -4.1190   -3.4683   -3.6682 H         1 UNL    0.1222
     40 H          -4.3382   -5.4123   -2.3350 H         1 UNL    0.0428
     41 H          -3.4254   -4.6180   -1.0464 H         1 UNL    0.0428
     42 H          -2.3976   -5.4476   -3.8123 H         1 UNL    0.0288
     43 H          -1.9153   -6.1477   -2.2721 H         1 UNL    0.0288
     44 H           5.3081   -2.7894   -1.6234 H         1 UNL    0.0840
     45 H           6.4062   -2.1907    0.5594 H         1 UNL    0.0639
     46 H           4.9605   -1.6889    2.5365 H         1 UNL    0.0627
     47 H           2.8213   -1.4546    3.5284 H         1 UNL    0.0280
     48 H           1.5963   -2.5630    2.9032 H         1 UNL    0.0280
     49 H           1.5730   -0.8467    2.4369 H         1 UNL    0.0280
@<TRIPOS>BOND
     1    1    2 1
     2    1   25 1
     3    1   26 1
     4    1   27 1
     5    2    3 ar
     6    2    7 ar
     7    3    4 ar
     8    3   28 1
     9    4    5 ar
    10    4   29 1
    11    5    6 ar
    12    5   30 1
    13    6    7 ar
    14    6   31 1
    15    7    8 1
    16    8    9 1
    17    8   18 1
    18    8   32 1
    19    9   10 am
    20    9   33 1
    21   10   11 2
    22   10   12 1
    23   12   13 1
    24   12   17 1
    25   12   34 1
    26   13   14 1
    27   13   35 1
    28   13   36 1
    29   14   15 1
    30   14   37 1
    31   14   38 1
    32   15   16 1
    33   15   39 1
    34   16   17 1
    35   16   40 1
    36   16   41 1
    37   17   42 1
    38   17   43 1
    39   18   19 ar
    40   18   23 ar
    41   19   20 ar
    42   20   21 ar
    43   20   44 1
    44   21   22 ar
    45   21   45 1
    46   22   23 ar
    47   22   46 1
    48   23   24 1
    49   24   47 1
    50   24   48 1
    51   24   49 1
@<TRIPOS>SUBSTRUCTURE
     1 UNL     1 RESIDUE           4 A     UNL     0 ROOT
@<TRIPOS>MOLECULE
oleObject14.pdb
60 63 1 0 0
SMALL
NO_CHARGES


@<TRIPOS>ATOM
      1 C           1.4579   -3.0566    3.2435 C.ar      1 UNL    0.0422
      2 C           0.8606   -1.8148    2.9756 C.ar      1 UNL   -0.0408
      3 C          -0.4459   -1.7583    2.4621 C.ar      1 UNL   -0.0288
      4 C          -1.1632   -2.9481    2.2133 C.ar      1 UNL    0.0937
      5 C          -0.5556   -4.1909    2.4856 C.ar      1 UNL    0.0723
      6 C           0.7510   -4.2443    2.9990 C.ar      1 UNL   -0.0221
      7 CL         -1.4109   -5.6935    2.1915 Cl        1 UNL   -0.0814
      8 O          -2.4495   -2.9361    1.7090 O.3       1 UNL   -0.3432
      9 C          -3.1655   -1.7316    1.3832 C.3       1 UNL    0.0661
     10 C          -4.5589   -2.1390    0.8611 C.3       1 UNL    0.0222
     11 N          -5.4673   -0.9905    0.6475 N.4       1 UNL   -0.3010
     12 C          -4.9911   -0.0175   -0.3634 C.3       1 UNL   -0.0010
     13 C          -5.9206    1.2127   -0.4616 C.3       1 UNL   -0.0289
     14 C          -7.3990    0.8304   -0.7145 C.3       1 UNL    0.0382
     15 C          -7.8469   -0.2569    0.2946 C.3       1 UNL   -0.0289
     16 C          -6.8553   -1.4391    0.4034 C.3       1 UNL   -0.0010
     17 C          -7.6365    0.4031   -2.1841 C.2       1 UNL    0.2156
     18 O          -7.2607   -0.6739   -2.6098 O.2       1 UNL   -0.2774
     19 N          -8.3367    1.2408   -3.0427 N.am      1 UNL   -0.3025
     20 C          -8.7563    2.6336   -2.7985 C.3       1 UNL    0.0900
     21 C          -7.5782    3.5799   -2.5748 C.ar      1 UNL   -0.0217
     22 C          -6.4430    3.5408   -3.4095 C.ar      1 UNL   -0.0568
     23 C          -5.3638    4.4105   -3.1828 C.ar      1 UNL   -0.0619
     24 C          -5.4118    5.3288   -2.1222 C.ar      1 UNL   -0.0622
     25 C          -6.5413    5.3782   -1.2903 C.ar      1 UNL   -0.0619
     26 C          -7.6203    4.5084   -1.5173 C.ar      1 UNL   -0.0568
     27 C          -9.6619    3.1530   -3.9111 C.ar      1 UNL    0.0652
     28 C          -9.3168    3.0176   -5.2718 C.ar      1 UNL   -0.0383
     29 C         -10.1878    3.5240   -6.2497 C.ar      1 UNL   -0.0588
     30 C         -11.3732    4.1495   -5.8333 C.ar      1 UNL   -0.0438
     31 C         -11.6389    4.2436   -4.4564 C.ar      1 UNL    0.0272
     32 N         -10.8035    3.7580   -3.5159 N.ar      1 UNL   -0.2590
     33 CL          3.0860   -3.1236    3.8833 Cl        1 UNL   -0.0843
     34 H           1.4083   -0.8960    3.1654 H         1 UNL    0.0639
     35 H          -0.8880   -0.7875    2.2629 H         1 UNL    0.0652
     36 H           1.2141   -5.2048    3.2067 H         1 UNL    0.0655
     37 H          -2.6221   -1.1695    0.6142 H         1 UNL    0.0586
     38 H          -3.2799   -1.1041    2.2764 H         1 UNL    0.0586
     39 H          -5.0049   -2.8181    1.5995 H         1 UNL    0.0455
     40 H          -4.4409   -2.7014   -0.0744 H         1 UNL    0.0455
     41 H          -4.9294   -0.5046   -1.3454 H         1 UNL    0.0431
     42 H          -3.9875    0.3423   -0.1090 H         1 UNL    0.0431
     43 H          -5.5609    1.8837   -1.2503 H         1 UNL    0.0288
     44 H          -5.8560    1.7737    0.4797 H         1 UNL    0.0288
     45 H          -8.0065    1.7127   -0.4962 H         1 UNL    0.0402
     46 H          -8.8440   -0.6298    0.0278 H         1 UNL    0.0288
     47 H          -7.9407    0.2036    1.2867 H         1 UNL    0.0288
     48 H          -6.8935   -2.0325   -0.5188 H         1 UNL    0.0431
     49 H          -7.1838   -2.0914    1.2229 H         1 UNL    0.0431
     50 H          -8.4924    0.8781   -3.9746 H         1 UNL    0.1504
     51 H          -9.3634    2.6242   -1.8842 H         1 UNL    0.0624
     52 H          -6.3902    2.8307   -4.2295 H         1 UNL    0.0626
     53 H          -4.4908    4.3715   -3.8280 H         1 UNL    0.0623
     54 H          -4.5772    6.0018   -1.9471 H         1 UNL    0.0623
     55 H          -6.5815    6.0907   -0.4713 H         1 UNL    0.0623
     56 H          -8.4909    4.5560   -0.8689 H         1 UNL    0.0626
     57 H          -8.3923    2.5302   -5.5661 H         1 UNL    0.0643
     58 H          -9.9491    3.4340   -7.3055 H         1 UNL    0.0624
     59 H         -12.0716    4.5536   -6.5602 H         1 UNL    0.0639
     60 H         -12.5481    4.7227   -4.0952 H         1 UNL    0.0840
@<TRIPOS>BOND
     1    1    2 ar
     2    1    6 ar
     3    1   33 1
     4    2    3 ar
     5    2   34 1
     6    3    4 ar
     7    3   35 1
     8    4    5 ar
     9    4    8 1
    10    5    6 ar
    11    5    7 1
    12    6   36 1
    13    8    9 1
    14    9   10 1
    15    9   37 1
    16    9   38 1
    17   10   11 1
    18   10   39 1
    19   10   40 1
    20   11   12 1
    21   11   16 1
    22   12   13 1
    23   12   41 1
    24   12   42 1
    25   13   14 1
    26   13   43 1
    27   13   44 1
    28   14   15 1
    29   14   17 1
    30   14   45 1
    31   15   16 1
    32   15   46 1
    33   15   47 1
    34   16   48 1
    35   16   49 1
    36   17   18 2
    37   17   19 am
    38   19   20 1
    39   19   50 1
    40   20   21 1
    41   20   27 1
    42   20   51 1
    43   21   22 ar
    44   21   26 ar
    45   22   23 ar
    46   22   52 1
    47   23   24 ar
    48   23   53 1
    49   24   25 ar
    50   24   54 1
    51   25   26 ar
    52   25   55 1
    53   26   56 1
    54   27   28 ar
    55   27   32 ar
    56   28   29 ar
    57   28   57 1
    58   29   30 ar
    59   29   58 1
    60   30   31 ar
    61   30   59 1
    62   31   32 ar
    63   31   60 1
@<TRIPOS>SUBSTRUCTURE
     1 UNL     1 RESIDUE           4 A     UNL     0 ROOT
@<TRIPOS>MOLECULE
oleObject15.pdb
62 64 1 0 0
SMALL
NO_CHARGES


@<TRIPOS>ATOM
      1 O          -2.7998    0.4260    0.2352 O.3       1 UNL   -0.3745
      2 C          -1.3818    0.2515    0.0153 C.3       1 UNL    0.0600
      3 C          -0.9875   -1.1782    0.4532 C.3       1 UNL    0.0217
      4 N          -1.7392   -2.2598   -0.2253 N.4       1 UNL   -0.3010
      5 C          -1.6403   -2.2489   -1.7029 C.3       1 UNL   -0.0010
      6 C          -2.5503   -3.3172   -2.3473 C.3       1 UNL   -0.0289
      7 C          -2.3031   -4.7370   -1.7831 C.3       1 UNL    0.0382
      8 C          -2.3245   -4.7042   -0.2340 C.3       1 UNL   -0.0289
      9 C          -1.4476   -3.5817    0.3686 C.3       1 UNL   -0.0010
     10 C          -0.9978   -5.3561   -2.3417 C.2       1 UNL    0.2156
     11 O           0.1009   -4.9952   -1.9605 O.2       1 UNL   -0.2774
     12 N          -1.0646   -6.3857   -3.2717 N.am      1 UNL   -0.3025
     13 C          -2.2594   -6.8858   -3.9774 C.3       1 UNL    0.0900
     14 C          -2.9135   -5.8275   -4.8638 C.ar      1 UNL   -0.0217
     15 C          -2.1416   -5.0113   -5.7152 C.ar      1 UNL   -0.0568
     16 C          -2.7579   -4.0346   -6.5144 C.ar      1 UNL   -0.0619
     17 C          -4.1509   -3.8679   -6.4717 C.ar      1 UNL   -0.0622
     18 C          -4.9272   -4.6808   -5.6310 C.ar      1 UNL   -0.0619
     19 C          -4.3107   -5.6576   -4.8321 C.ar      1 UNL   -0.0568
     20 C          -1.9540   -8.1477   -4.7790 C.ar      1 UNL    0.0652
     21 C          -0.8484   -8.2225   -5.6513 C.ar      1 UNL   -0.0383
     22 C          -0.6249   -9.4087   -6.3685 C.ar      1 UNL   -0.0588
     23 C          -1.5153  -10.4787   -6.1898 C.ar      1 UNL   -0.0438
     24 C          -2.5928  -10.3189   -5.3018 C.ar      1 UNL    0.0272
     25 N          -2.8091   -9.1804   -4.6123 N.ar      1 UNL   -0.2590
     26 C          -3.4488    1.6397   -0.2127 C.3       1 UNL    0.0599
     27 C          -3.3850    1.7234   -1.7585 C.3       1 UNL   -0.0364
     28 C          -4.9174    1.5020    0.2485 C.3       1 UNL   -0.0364
     29 C          -2.7923    2.8721    0.4583 C.3       1 UNL   -0.0364
     30 H          -0.8112    0.9729    0.6125 H         1 UNL    0.0581
     31 H          -1.1190    0.3983   -1.0379 H         1 UNL    0.0581
     32 H          -1.1517   -1.2508    1.5359 H         1 UNL    0.0455
     33 H           0.0871   -1.3137    0.2767 H         1 UNL    0.0455
     34 H          -0.6003   -2.4244   -2.0067 H         1 UNL    0.0431
     35 H          -1.9439   -1.2733   -2.1001 H         1 UNL    0.0431
     36 H          -2.4134   -3.3097   -3.4348 H         1 UNL    0.0288
     37 H          -3.5961   -3.0395   -2.1619 H         1 UNL    0.0288
     38 H          -3.1505   -5.3593   -2.0825 H         1 UNL    0.0402
     39 H          -2.0135   -5.6770    0.1675 H         1 UNL    0.0288
     40 H          -3.3587   -4.5451    0.0980 H         1 UNL    0.0288
     41 H          -0.3886   -3.8266    0.2193 H         1 UNL    0.0431
     42 H          -1.6247   -3.5481    1.4513 H         1 UNL    0.0431
     43 H          -0.1744   -6.7712   -3.5597 H         1 UNL    0.1504
     44 H          -2.9828   -7.1771   -3.2052 H         1 UNL    0.0624
     45 H          -1.0621   -5.1248   -5.7521 H         1 UNL    0.0626
     46 H          -2.1556   -3.4063   -7.1643 H         1 UNL    0.0623
     47 H          -4.6276   -3.1121   -7.0894 H         1 UNL    0.0623
     48 H          -6.0057   -4.5548   -5.5987 H         1 UNL    0.0623
     49 H          -4.9207   -6.2825   -4.1857 H         1 UNL    0.0626
     50 H          -0.1758   -7.3787   -5.7717 H         1 UNL    0.0643
     51 H           0.2185   -9.4959   -7.0474 H         1 UNL    0.0624
     52 H          -1.3754  -11.4120   -6.7272 H         1 UNL    0.0639
     53 H          -3.3051  -11.1266   -5.1376 H         1 UNL    0.0840
     54 H          -3.7323    0.7873   -2.2143 H         1 UNL    0.0260
     55 H          -2.3650    1.9188   -2.1108 H         1 UNL    0.0260
     56 H          -4.0216    2.5366   -2.1292 H         1 UNL    0.0260
     57 H          -5.3841    0.6127   -0.1945 H         1 UNL    0.0260
     58 H          -5.5078    2.3782   -0.0480 H         1 UNL    0.0260
     59 H          -4.9768    1.4066    1.3403 H         1 UNL    0.0260
     60 H          -1.7735    3.0375    0.0867 H         1 UNL    0.0260
     61 H          -2.7445    2.7446    1.5474 H         1 UNL    0.0260
     62 H          -3.3706    3.7810    0.2495 H         1 UNL    0.0260
@<TRIPOS>BOND
     1    1    2 1
     2    1   26 1
     3    2    3 1
     4    2   30 1
     5    2   31 1
     6    3    4 1
     7    3   32 1
     8    3   33 1
     9    4    5 1
    10    4    9 1
    11    5    6 1
    12    5   34 1
    13    5   35 1
    14    6    7 1
    15    6   36 1
    16    6   37 1
    17    7    8 1
    18    7   10 1
    19    7   38 1
    20    8    9 1
    21    8   39 1
    22    8   40 1
    23    9   41 1
    24    9   42 1
    25   10   11 2
    26   10   12 am
    27   12   13 1
    28   12   43 1
    29   13   14 1
    30   13   20 1
    31   13   44 1
    32   14   15 ar
    33   14   19 ar
    34   15   16 ar
    35   15   45 1
    36   16   17 ar
    37   16   46 1
    38   17   18 ar
    39   17   47 1
    40   18   19 ar
    41   18   48 1
    42   19   49 1
    43   20   21 ar
    44   20   25 ar
    45   21   22 ar
    46   21   50 1
    47   22   23 ar
    48   22   51 1
    49   23   24 ar
    50   23   52 1
    51   24   25 ar
    52   24   53 1
    53   26   27 1
    54   26   28 1
    55   26   29 1
    56   27   54 1
    57   27   55 1
    58   27   56 1
    59   28   57 1
    60   28   58 1
    61   28   59 1
    62   29   60 1
    63   29   61 1
    64   29   62 1
@<TRIPOS>SUBSTRUCTURE
     1 UNL     1 RESIDUE           4 A     UNL     0 ROOT
@<TRIPOS>MOLECULE
oleObject17.pdb
57 59 1 0 0
SMALL
NO_CHARGES


@<TRIPOS>ATOM
      1 C           4.2634    1.2761    1.2642 C.3       1 UNL    0.0391
      2 C           4.5161    0.7145   -0.1366 C.ar      1 UNL   -0.0277
      3 C           5.2814    1.4014   -1.1126 C.ar      1 UNL   -0.0463
      4 C           5.4422    0.8335   -2.3919 C.ar      1 UNL   -0.0590
      5 C           4.8578   -0.4017   -2.7073 C.ar      1 UNL   -0.0620
      6 C           4.1160   -1.0900   -1.7383 C.ar      1 UNL   -0.0619
      7 C           3.9527   -0.5356   -0.4602 C.ar      1 UNL   -0.0572
      8 C           5.9493    2.7416   -0.8250 C.3       1 UNL   -0.0394
      9 N           2.8345    1.5607    1.5165 N.am      1 UNL   -0.3003
     10 C           2.1807    2.6007    0.8561 C.2       1 UNL    0.2175
     11 O           2.8220    3.5425    0.4219 O.2       1 UNL   -0.2772
     12 C           0.7411    2.3106    0.3552 C.3       1 UNL    0.0384
     13 C           0.6744    1.0931   -0.6012 C.3       1 UNL   -0.0289
     14 C           1.3465    1.4017   -1.9532 C.3       1 UNL   -0.0010
     15 N           0.7415    2.5804   -2.6114 N.4       1 UNL   -0.3010
     16 C           0.6883    3.7959   -1.7656 C.3       1 UNL   -0.0010
     17 C           0.0922    3.5273   -0.3596 C.3       1 UNL   -0.0289
     18 C           1.2659    2.8245   -3.9746 C.3       1 UNL    0.0222
     19 C           2.7661    3.1983   -4.0039 C.3       1 UNL    0.0661
     20 O           3.1763    3.3193   -5.3764 O.3       1 UNL   -0.3432
     21 C           4.4848    3.5614   -5.7488 C.ar      1 UNL    0.0937
     22 C           5.4838    3.8775   -4.8028 C.ar      1 UNL   -0.0288
     23 C           6.8049    4.1089   -5.2199 C.ar      1 UNL   -0.0408
     24 C           7.1360    4.0292   -6.5816 C.ar      1 UNL    0.0422
     25 C           6.1477    3.7194   -7.5290 C.ar      1 UNL   -0.0221
     26 C           4.8256    3.4866   -7.1146 C.ar      1 UNL    0.0723
     27 CL          3.6161    3.0961   -8.3230 Cl        1 UNL   -0.0814
     28 CL          8.7836    4.3173   -7.0985 Cl        1 UNL   -0.0843
     29 C           2.1632    0.6926    2.5011 C.3       1 UNL    0.0031
     30 H           4.8314    2.1985    1.4286 H         1 UNL    0.0520
     31 H           4.6301    0.5477    1.9983 H         1 UNL    0.0520
     32 H           6.0231    1.3514   -3.1497 H         1 UNL    0.0626
     33 H           4.9860   -0.8271   -3.6987 H         1 UNL    0.0623
     34 H           3.6668   -2.0497   -1.9769 H         1 UNL    0.0623
     35 H           3.3719   -1.0759    0.2815 H         1 UNL    0.0626
     36 H           6.5904    2.6826    0.0631 H         1 UNL    0.0280
     37 H           5.2055    3.5290   -0.6584 H         1 UNL    0.0280
     38 H           6.5843    3.0652   -1.6589 H         1 UNL    0.0280
     39 H           0.1305    2.0879    1.2382 H         1 UNL    0.0402
     40 H          -0.3766    0.8313   -0.7797 H         1 UNL    0.0288
     41 H           1.1387    0.2093   -0.1514 H         1 UNL    0.0288
     42 H           1.2561    0.5226   -2.6041 H         1 UNL    0.0431
     43 H           2.4136    1.5778   -1.7761 H         1 UNL    0.0431
     44 H           0.0825    4.5640   -2.2631 H         1 UNL    0.0431
     45 H           1.6963    4.2092   -1.6481 H         1 UNL    0.0431
     46 H          -0.9832    3.3374   -0.4710 H         1 UNL    0.0288
     47 H           0.1861    4.4264    0.2628 H         1 UNL    0.0288
     48 H           0.6925    3.6313   -4.4488 H         1 UNL    0.0455
     49 H           1.1203    1.9229   -4.5834 H         1 UNL    0.0455
     50 H           3.3563    2.4149   -3.5148 H         1 UNL    0.0586
     51 H           2.9275    4.1462   -3.4765 H         1 UNL    0.0586
     52 H           5.2501    3.9481   -3.7455 H         1 UNL    0.0651
     53 H           7.5697    4.3508   -4.4872 H         1 UNL    0.0639
     54 H           6.4052    3.6585   -8.5826 H         1 UNL    0.0655
     55 H           2.8655    0.4030    3.2930 H         1 UNL    0.0433
     56 H           1.7879   -0.2136    2.0106 H         1 UNL    0.0433
     57 H           1.3255    1.2255    2.9675 H         1 UNL    0.0433
@<TRIPOS>BOND
     1    1    2 1
     2    1    9 1
     3    1   30 1
     4    1   31 1
     5    2    3 ar
     6    2    7 ar
     7    3    4 ar
     8    3    8 1
     9    4    5 ar
    10    4   32 1
    11    5    6 ar
    12    5   33 1
    13    6    7 ar
    14    6   34 1
    15    7   35 1
    16    8   36 1
    17    8   37 1
    18    8   38 1
    19    9   10 am
    20    9   29 1
    21   10   11 2
    22   10   12 1
    23   12   13 1
    24   12   17 1
    25   12   39 1
    26   13   14 1
    27   13   40 1
    28   13   41 1
    29   14   15 1
    30   14   42 1
    31   14   43 1
    32   15   16 1
    33   15   18 1
    34   16   17 1
    35   16   44 1
    36   16   45 1
    37   17   46 1
    38   17   47 1
    39   18   19 1
    40   18   48 1
    41   18   49 1
    42   19   20 1
    43   19   50 1
    44   19   51 1
    45   20   21 1
    46   21   22 ar
    47   21   26 ar
    48   22   23 ar
    49   22   52 1
    50   23   24 ar
    51   23   53 1
    52   24   25 ar
    53   24   28 1
    54   25   26 ar
    55   25   54 1
    56   26   27 1
    57   29   55 1
    58   29   56 1
    59   29   57 1
@<TRIPOS>SUBSTRUCTURE
     1 UNL     1 RESIDUE           4 A     UNL     0 ROOT
@<TRIPOS>MOLECULE
oleObject27.pdb
65 68 1 0 0
SMALL
NO_CHARGES


@<TRIPOS>ATOM
      1 C           1.7289   -0.6484    4.3581 C.ar      1 UNL   -0.0620
      2 C           2.0241   -1.7187    3.5014 C.ar      1 UNL   -0.0590
      3 C           2.2522   -1.5001    2.1288 C.ar      1 UNL   -0.0456
      4 C           2.1900   -0.1835    1.6081 C.ar      1 UNL   -0.0187
      5 C           1.8807    0.8826    2.4812 C.ar      1 UNL   -0.0565
      6 C           1.6539    0.6534    3.8463 C.ar      1 UNL   -0.0619
      7 C           2.4349    0.0934    0.1163 C.3       1 UNL    0.0921
      8 C           1.1627   -0.0421   -0.7263 C.ar      1 UNL    0.0681
      9 C           1.1576   -0.6916   -1.9862 C.ar      1 UNL   -0.0272
     10 C          -0.0550   -0.7590   -2.6979 C.ar      1 UNL   -0.0559
     11 C          -1.2053   -0.1771   -2.1455 C.ar      1 UNL   -0.0435
     12 C          -1.1046    0.4600   -0.8997 C.ar      1 UNL    0.0272
     13 N           0.0500    0.5295   -0.2109 N.ar      1 UNL   -0.2587
     14 C           2.4155   -1.3017   -2.5939 C.3       1 UNL   -0.0379
     15 N           3.0715    1.3959   -0.1275 N.am      1 UNL   -0.2865
     16 C           4.4318    1.6238   -0.0228 C.2       1 UNL    0.3014
     17 O           5.2153    0.7283    0.2457 O.2       1 UNL   -0.2541
     18 N           4.8395    2.9415   -0.2390 N.am      1 UNL   -0.2833
     19 C           3.8689    4.0615   -0.3771 C.3       1 UNL    0.0284
     20 C           4.4563    5.3662   -0.9682 C.3       1 UNL    0.0142
     21 N           5.7441    5.7345   -0.3547 N.4       1 UNL   -0.2979
     22 C           6.7148    4.6426   -0.5662 C.3       1 UNL    0.0142
     23 C           6.2436    3.3121    0.0647 C.3       1 UNL    0.0284
     24 C           5.6064    6.2141    1.0416 C.3       1 UNL    0.0223
     25 C           6.9135    6.7952    1.6173 C.3       1 UNL    0.0661
     26 O           6.6127    7.3435    2.9126 O.3       1 UNL   -0.3432
     27 C           7.5531    7.9479    3.7245 C.ar      1 UNL    0.0937
     28 C           8.8988    8.0994    3.3268 C.ar      1 UNL   -0.0288
     29 C           9.8232    8.7204    4.1833 C.ar      1 UNL   -0.0408
     30 C           9.4110    9.1930    5.4392 C.ar      1 UNL    0.0422
     31 C           8.0744    9.0464    5.8418 C.ar      1 UNL   -0.0221
     32 C           7.1477    8.4260    4.9875 C.ar      1 UNL    0.0723
     33 CL          5.4854    8.2582    5.5208 Cl        1 UNL   -0.0814
     34 CL         10.5654    9.9664    6.5041 Cl        1 UNL   -0.0843
     35 C           2.5531   -2.7014    1.2387 C.3       1 UNL   -0.0394
     36 H           1.5532   -0.8290    5.4147 H         1 UNL    0.0623
     37 H           2.0729   -2.7247    3.9085 H         1 UNL    0.0626
     38 H           1.8073    1.8980    2.1032 H         1 UNL    0.0627
     39 H           1.4183    1.4842    4.5050 H         1 UNL    0.0623
     40 H           3.1517   -0.6569   -0.2300 H         1 UNL    0.0625
     41 H          -0.1054   -1.2502   -3.6656 H         1 UNL    0.0627
     42 H          -2.1536   -0.2134   -2.6734 H         1 UNL    0.0639
     43 H          -1.9731    0.9288   -0.4387 H         1 UNL    0.0840
     44 H           3.2329   -0.5704   -2.6283 H         1 UNL    0.0280
     45 H           2.2427   -1.6460   -3.6213 H         1 UNL    0.0280
     46 H           2.7560   -2.1659   -2.0103 H         1 UNL    0.0280
     47 H           2.4739    2.1811   -0.3443 H         1 UNL    0.1521
     48 H           3.4564    4.2759    0.6171 H         1 UNL    0.0484
     49 H           3.0371    3.7554   -1.0234 H         1 UNL    0.0484
     50 H           3.7300    6.1807   -0.8511 H         1 UNL    0.0447
     51 H           4.6054    5.2177   -2.0457 H         1 UNL    0.0447
     52 H           7.7026    4.9078   -0.1717 H         1 UNL    0.0447
     53 H           6.8375    4.4827   -1.6453 H         1 UNL    0.0447
     54 H           6.3478    3.3776    1.1551 H         1 UNL    0.0484
     55 H           6.9127    2.5139   -0.2815 H         1 UNL    0.0484
     56 H           5.2627    5.4026    1.6954 H         1 UNL    0.0455
     57 H           4.8457    7.0048    1.0745 H         1 UNL    0.0455
     58 H           7.2911    7.5798    0.9492 H         1 UNL    0.0586
     59 H           7.6692    6.0059    1.7111 H         1 UNL    0.0586
     60 H           9.2392    7.7422    2.3604 H         1 UNL    0.0652
     61 H          10.8579    8.8346    3.8725 H         1 UNL    0.0639
     62 H           7.7564    9.4125    6.8139 H         1 UNL    0.0655
     63 H           2.4614   -3.6467    1.7879 H         1 UNL    0.0280
     64 H           3.5747   -2.6519    0.8417 H         1 UNL    0.0280
     65 H           1.8579   -2.7503    0.3916 H         1 UNL    0.0280
@<TRIPOS>BOND
     1    1    2 ar
     2    1    6 ar
     3    1   36 1
     4    2    3 ar
     5    2   37 1
     6    3    4 ar
     7    3   35 1
     8    4    5 ar
     9    4    7 1
    10    5    6 ar
    11    5   38 1
    12    6   39 1
    13    7    8 1
    14    7   15 1
    15    7   40 1
    16    8    9 ar
    17    8   13 ar
    18    9   10 ar
    19    9   14 1
    20   10   11 ar
    21   10   41 1
    22   11   12 ar
    23   11   42 1
    24   12   13 ar
    25   12   43 1
    26   14   44 1
    27   14   45 1
    28   14   46 1
    29   15   16 am
    30   15   47 1
    31   16   17 2
    32   16   18 am
    33   18   19 1
    34   18   23 1
    35   19   20 1
    36   19   48 1
    37   19   49 1
    38   20   21 1
    39   20   50 1
    40   20   51 1
    41   21   22 1
    42   21   24 1
    43   22   23 1
    44   22   52 1
    45   22   53 1
    46   23   54 1
    47   23   55 1
    48   24   25 1
    49   24   56 1
    50   24   57 1
    51   25   26 1
    52   25   58 1
    53   25   59 1
    54   26   27 1
    55   27   28 ar
    56   27   32 ar
    57   28   29 ar
    58   28   60 1
    59   29   30 ar
    60   29   61 1
    61   30   31 ar
    62   30   34 1
    63   31   32 ar
    64   31   62 1
    65   32   33 1
    66   35   63 1
    67   35   64 1
    68   35   65 1
@<TRIPOS>SUBSTRUCTURE
     1 UNL     1 RESIDUE           4 A     UNL     0 ROOT
@<TRIPOS>MOLECULE
oleObject42.pdb
68 71 1 0 0
SMALL
NO_CHARGES


@<TRIPOS>ATOM
      1 C           0.1719   -6.3783   -1.8335 C.ar      1 UNL   -0.0435
      2 C          -0.3160   -5.2570   -2.5200 C.ar      1 UNL   -0.0559
      3 C          -0.0597   -3.9720   -2.0057 C.ar      1 UNL   -0.0272
      4 C           0.6864   -3.8628   -0.8051 C.ar      1 UNL    0.0699
      5 N           1.1514   -4.9537   -0.1525 N.ar      1 UNL   -0.2586
      6 C           0.9016   -6.1782   -0.6525 C.ar      1 UNL    0.0272
      7 C           1.0116   -2.4965   -0.1776 C.3       1 UNL    0.1101
      8 C           1.1947   -2.5570    1.3514 C.ar      1 UNL    0.0699
      9 C           0.0824   -2.6665    2.2237 C.ar      1 UNL   -0.0272
     10 C           0.3194   -2.7060    3.6107 C.ar      1 UNL   -0.0559
     11 C           1.6384   -2.6348    4.0813 C.ar      1 UNL   -0.0435
     12 C           2.6795   -2.5243    3.1481 C.ar      1 UNL    0.0272
     13 N           2.4628   -2.4844    1.8203 N.ar      1 UNL   -0.2586
     14 C          -1.3507   -2.7428    1.7084 C.3       1 UNL   -0.0379
     15 N           2.0976   -1.7753   -0.8977 N.am      1 UNL   -0.2902
     16 C           1.9895   -0.4420   -1.2952 C.2       1 UNL    0.2180
     17 O           2.6393   -0.0275   -2.2410 O.2       1 UNL   -0.2772
     18 C           1.3067    0.5357   -0.3076 C.3       1 UNL    0.0385
     19 C          -0.0834    0.9788   -0.8241 C.3       1 UNL   -0.0289
     20 C           0.0195    1.9976   -1.9793 C.3       1 UNL   -0.0010
     21 N           0.8348    3.1703   -1.5956 N.4       1 UNL   -0.3010
     22 C           2.1963    2.8280   -1.1279 C.3       1 UNL   -0.0010
     23 C           2.1780    1.7793    0.0102 C.3       1 UNL   -0.0289
     24 C           0.7958    4.2774   -2.5767 C.3       1 UNL    0.0222
     25 C           1.4547    3.9396   -3.9328 C.3       1 UNL    0.0661
     26 O           1.3074    5.0821   -4.7905 O.3       1 UNL   -0.3432
     27 C           1.7853    5.0146   -6.0761 C.ar      1 UNL    0.0937
     28 C           3.0821    5.4823   -6.3477 C.ar      1 UNL   -0.0288
     29 C           3.5907    5.4254   -7.6559 C.ar      1 UNL   -0.0408
     30 C           2.7995    4.9031   -8.6927 C.ar      1 UNL    0.0422
     31 C           1.5005    4.4395   -8.4253 C.ar      1 UNL   -0.0221
     32 C           0.9900    4.4953   -7.1174 C.ar      1 UNL    0.0723
     33 CL         -0.6364    3.9149   -6.8108 Cl        1 UNL   -0.0814
     34 CL          3.4330    4.8324  -10.3232 Cl        1 UNL   -0.0843
     35 C           3.2539   -2.5871   -1.3276 C.3       1 UNL    0.0038
     36 C          -0.5859   -2.7508   -2.7520 C.3       1 UNL   -0.0379
     37 H          -0.0101   -7.3811   -2.2086 H         1 UNL    0.0639
     38 H          -0.8827   -5.3860   -3.4379 H         1 UNL    0.0627
     39 H           1.2991   -7.0219   -0.0897 H         1 UNL    0.0840
     40 H           0.1129   -1.8934   -0.3305 H         1 UNL    0.0643
     41 H          -0.5044   -2.7915    4.3137 H         1 UNL    0.0627
     42 H           1.8502   -2.6645    5.1460 H         1 UNL    0.0639
     43 H           3.7180   -2.4661    3.4715 H         1 UNL    0.0840
     44 H          -1.6313   -1.8218    1.1826 H         1 UNL    0.0280
     45 H          -2.0671   -2.8826    2.5275 H         1 UNL    0.0280
     46 H          -1.4804   -3.5844    1.0169 H         1 UNL    0.0280
     47 H           1.1604    0.0188    0.6463 H         1 UNL    0.0402
     48 H          -0.6406    1.4397    0.0018 H         1 UNL    0.0288
     49 H          -0.6662    0.1090   -1.1496 H         1 UNL    0.0288
     50 H          -0.9926    2.3213   -2.2543 H         1 UNL    0.0431
     51 H           0.4604    1.5010   -2.8531 H         1 UNL    0.0431
     52 H           2.7010    3.7316   -0.7627 H         1 UNL    0.0431
     53 H           2.7910    2.4385   -1.9625 H         1 UNL    0.0431
     54 H           1.7805    2.2613    0.9128 H         1 UNL    0.0288
     55 H           3.2033    1.4687    0.2489 H         1 UNL    0.0288
     56 H           1.2997    5.1554   -2.1528 H         1 UNL    0.0455
     57 H          -0.2486    4.5618   -2.7586 H         1 UNL    0.0455
     58 H           0.9646    3.0677   -4.3831 H         1 UNL    0.0586
     59 H           2.5182    3.7108   -3.7920 H         1 UNL    0.0586
     60 H           3.6909    5.8873   -5.5445 H         1 UNL    0.0652
     61 H           4.5941    5.7859   -7.8643 H         1 UNL    0.0639
     62 H           0.8904    4.0389   -9.2299 H         1 UNL    0.0655
     63 H           3.4332   -3.4077   -0.6218 H         1 UNL    0.0433
     64 H           4.1558   -1.9633   -1.3675 H         1 UNL    0.0433
     65 H           3.0622   -3.0038   -2.3243 H         1 UNL    0.0433
     66 H          -1.1029   -3.0350   -3.6770 H         1 UNL    0.0280
     67 H           0.2301   -2.0737   -3.0322 H         1 UNL    0.0280
     68 H          -1.3011   -2.1901   -2.1381 H         1 UNL    0.0280
@<TRIPOS>BOND
     1    1    2 ar
     2    1    6 ar
     3    1   37 1
     4    2    3 ar
     5    2   38 1
     6    3    4 ar
     7    3   36 1
     8    4    5 ar
     9    4    7 1
    10    5    6 ar
    11    6   39 1
    12    7    8 1
    13    7   15 1
    14    7   40 1
    15    8    9 ar
    16    8   13 ar
    17    9   10 ar
    18    9   14 1
    19   10   11 ar
    20   10   41 1
    21   11   12 ar
    22   11   42 1
    23   12   13 ar
    24   12   43 1
    25   14   44 1
    26   14   45 1
    27   14   46 1
    28   15   16 am
    29   15   35 1
    30   16   17 2
    31   16   18 1
    32   18   19 1
    33   18   23 1
    34   18   47 1
    35   19   20 1
    36   19   48 1
    37   19   49 1
    38   20   21 1
    39   20   50 1
    40   20   51 1
    41   21   22 1
    42   21   24 1
    43   22   23 1
    44   22   52 1
    45   22   53 1
    46   23   54 1
    47   23   55 1
    48   24   25 1
    49   24   56 1
    50   24   57 1
    51   25   26 1
    52   25   58 1
    53   25   59 1
    54   26   27 1
    55   27   28 ar
    56   27   32 ar
    57   28   29 ar
    58   28   60 1
    59   29   30 ar
    60   29   61 1
    61   30   31 ar
    62   30   34 1
    63   31   32 ar
    64   31   62 1
    65   32   33 1
    66   35   63 1
    67   35   64 1
    68   35   65 1
    69   36   66 1
    70   36   67 1
    71   36   68 1
@<TRIPOS>SUBSTRUCTURE
     1 UNL     1 RESIDUE           4 A     UNL     0 ROOT
@<TRIPOS>MOLECULE
oleObject52.pdb
71 74 1 0 0
SMALL
NO_CHARGES


@<TRIPOS>ATOM
      1 C          -6.4236   -3.3117    3.0505 C.ar      1 UNL   -0.0596
      2 C          -6.8144   -3.3874    1.7052 C.ar      1 UNL   -0.0314
      3 C          -6.1379   -2.6341    0.7221 C.ar      1 UNL    0.0800
      4 C          -5.0576   -1.8003    1.0936 C.ar      1 UNL    0.0089
      5 C          -4.6801   -1.7303    2.4519 C.ar      1 UNL   -0.0541
      6 C          -5.3575   -2.4821    3.4236 C.ar      1 UNL   -0.0617
      7 C          -4.3293   -0.9794    0.0184 C.3       1 UNL    0.0953
      8 C          -5.1410    0.2469   -0.4347 C.ar      1 UNL    0.0684
      9 C          -5.1772    0.6619   -1.7897 C.ar      1 UNL   -0.0272
     10 C          -5.9533    1.7871   -2.1255 C.ar      1 UNL   -0.0559
     11 C          -6.6616    2.4551   -1.1164 C.ar      1 UNL   -0.0435
     12 C          -6.5727    1.9740    0.1982 C.ar      1 UNL    0.0272
     13 N          -5.8334    0.8991    0.5295 N.ar      1 UNL   -0.2587
     14 C          -4.4209   -0.0762   -2.8876 C.3       1 UNL   -0.0379
     15 N          -2.9007   -0.6903    0.3319 N.am      1 UNL   -0.2917
     16 C          -1.9116   -1.6394    0.0522 C.2       1 UNL    0.2180
     17 O          -2.2176   -2.7948   -0.1914 O.2       1 UNL   -0.2772
     18 C          -0.4897   -1.1124   -0.2692 C.3       1 UNL    0.0385
     19 C          -0.4422   -0.3532   -1.6173 C.3       1 UNL   -0.0289
     20 C          -0.5227   -1.3105   -2.8260 C.3       1 UNL   -0.0010
     21 N           0.5540   -2.3272   -2.7872 N.4       1 UNL   -0.3010
     22 C           0.5540   -3.1170   -1.5362 C.3       1 UNL   -0.0010
     23 C           0.5886   -2.2284   -0.2684 C.3       1 UNL   -0.0289
     24 C           0.6059   -3.2047   -3.9777 C.3       1 UNL    0.0222
     25 C           0.8800   -2.4433   -5.2911 C.3       1 UNL    0.0661
     26 O           1.0704   -3.4181   -6.3320 O.3       1 UNL   -0.3432
     27 C           1.3422   -3.0904   -7.6462 C.ar      1 UNL    0.0937
     28 C           1.4743   -1.7519   -8.0719 C.ar      1 UNL   -0.0289
     29 C           1.7513   -1.4620   -9.4183 C.ar      1 UNL   -0.0417
     30 C           1.8989   -2.5032  -10.3509 C.ar      1 UNL    0.0537
     31 C           1.7685   -3.8378   -9.9310 C.ar      1 UNL   -0.0230
     32 C           1.4916   -4.1307   -8.5852 C.ar      1 UNL    0.0721
     33 CL          1.3358   -5.8087   -8.1001 Cl        1 UNL   -0.0814
     34 C           2.1816   -2.2047  -11.7254 C.1       1 UNL    0.0992
     35 N           2.4080   -1.9536  -12.8313 N.1       1 UNL   -0.1924
     36 C          -2.6032    0.6081    0.9750 C.3       1 UNL    0.0037
     37 O          -6.5104   -2.6851   -0.6104 O.3       1 UNL   -0.3490
     38 C          -7.6150   -3.4628   -1.1018 C.3       1 UNL    0.0422
     39 H          -6.9484   -3.8938    3.8025 H         1 UNL    0.0624
     40 H          -7.6442   -4.0338    1.4402 H         1 UNL    0.0651
     41 H          -3.8605   -1.0929    2.7654 H         1 UNL    0.0627
     42 H          -5.0557   -2.4204    4.4652 H         1 UNL    0.0623
     43 H          -4.2965   -1.6443   -0.8518 H         1 UNL    0.0627
     44 H          -6.0115    2.1358   -3.1526 H         1 UNL    0.0627
     45 H          -7.2703    3.3241   -1.3478 H         1 UNL    0.0639
     46 H          -7.1109    2.4611    1.0103 H         1 UNL    0.0840
     47 H          -3.3678   -0.2126   -2.6200 H         1 UNL    0.0280
     48 H          -4.4485    0.4713   -3.8378 H         1 UNL    0.0280
     49 H          -4.8570   -1.0675   -3.0643 H         1 UNL    0.0280
     50 H          -0.2046   -0.4139    0.5245 H         1 UNL    0.0402
     51 H           0.4994    0.2078   -1.6775 H         1 UNL    0.0288
     52 H          -1.2476    0.3881   -1.6737 H         1 UNL    0.0288
     53 H          -0.4510   -0.7061   -3.7376 H         1 UNL    0.0431
     54 H          -1.5015   -1.8084   -2.8299 H         1 UNL    0.0431
     55 H           1.4277   -3.7811   -1.5173 H         1 UNL    0.0431
     56 H          -0.3375   -3.7560   -1.5084 H         1 UNL    0.0431
     57 H           1.5785   -1.7579   -0.2076 H         1 UNL    0.0288
     58 H           0.4858   -2.8529    0.6283 H         1 UNL    0.0288
     59 H          -0.3369   -3.7590   -4.0747 H         1 UNL    0.0455
     60 H           1.4091   -3.9416   -3.8468 H         1 UNL    0.0455
     61 H           1.7825   -1.8296   -5.1751 H         1 UNL    0.0586
     62 H           0.0311   -1.7942   -5.5374 H         1 UNL    0.0586
     63 H           1.3655   -0.9300   -7.3716 H         1 UNL    0.0651
     64 H           1.8512   -0.4270   -9.7352 H         1 UNL    0.0638
     65 H           1.8813   -4.6485  -10.6461 H         1 UNL    0.0653
     66 H          -3.4644    0.9615    1.5534 H         1 UNL    0.0433
     67 H          -2.3555    1.3561    0.2119 H         1 UNL    0.0433
     68 H          -1.7652    0.5060    1.6742 H         1 UNL    0.0433
     69 H          -7.7092   -3.3288   -2.1864 H         1 UNL    0.0535
     70 H          -8.5514   -3.1402   -0.6292 H         1 UNL    0.0535
     71 H          -7.4556   -4.5288   -0.8963 H         1 UNL    0.0535
@<TRIPOS>BOND
     1    1    2 ar
     2    1    6 ar
     3    1   39 1
     4    2    3 ar
     5    2   40 1
     6    3    4 ar
     7    3   37 1
     8    4    5 ar
     9    4    7 1
    10    5    6 ar
    11    5   41 1
    12    6   42 1
    13    7    8 1
    14    7   15 1
    15    7   43 1
    16    8    9 ar
    17    8   13 ar
    18    9   10 ar
    19    9   14 1
    20   10   11 ar
    21   10   44 1
    22   11   12 ar
    23   11   45 1
    24   12   13 ar
    25   12   46 1
    26   14   47 1
    27   14   48 1
    28   14   49 1
    29   15   16 am
    30   15   36 1
    31   16   17 2
    32   16   18 1
    33   18   19 1
    34   18   23 1
    35   18   50 1
    36   19   20 1
    37   19   51 1
    38   19   52 1
    39   20   21 1
    40   20   53 1
    41   20   54 1
    42   21   22 1
    43   21   24 1
    44   22   23 1
    45   22   55 1
    46   22   56 1
    47   23   57 1
    48   23   58 1
    49   24   25 1
    50   24   59 1
    51   24   60 1
    52   25   26 1
    53   25   61 1
    54   25   62 1
    55   26   27 1
    56   27   28 ar
    57   27   32 ar
    58   28   29 ar
    59   28   63 1
    60   29   30 ar
    61   29   64 1
    62   30   31 ar
    63   30   34 1
    64   31   32 ar
    65   31   65 1
    66   32   33 1
    67   34   35 3
    68   36   66 1
    69   36   67 1
    70   36   68 1
    71   37   38 1
    72   38   69 1
    73   38   70 1
    74   38   71 1
@<TRIPOS>SUBSTRUCTURE
     1 UNL     1 RESIDUE           4 A     UNL     0 ROOT
@<TRIPOS>MOLECULE
oleObject70.pdb
62 65 1 0 0
SMALL
NO_CHARGES


@<TRIPOS>ATOM
      1 C           2.5064    0.5302    5.2431 C.ar      1 UNL   -0.0620
      2 C           1.2467    0.6067    4.6321 C.ar      1 UNL   -0.0590
      3 C           1.1216    1.0066    3.2874 C.ar      1 UNL   -0.0456
      4 C           2.2827    1.3261    2.5381 C.ar      1 UNL   -0.0187
      5 C           3.5423    1.2585    3.1726 C.ar      1 UNL   -0.0565
      6 C           3.6550    0.8613    4.5131 C.ar      1 UNL   -0.0619
      7 C           2.1853    1.7667    1.0666 C.3       1 UNL    0.0909
      8 C           1.9462    3.2751    0.8804 C.ar      1 UNL    0.0681
      9 C           1.4259    3.8055   -0.3275 C.ar      1 UNL   -0.0272
     10 C           1.2397    5.1977   -0.4221 C.ar      1 UNL   -0.0559
     11 C           1.5681    6.0079    0.6742 C.ar      1 UNL   -0.0435
     12 C           2.0704    5.3984    1.8332 C.ar      1 UNL    0.0272
     13 N           2.2516    4.0686    1.9336 N.ar      1 UNL   -0.2587
     14 C           1.0701    2.9236   -1.5193 C.3       1 UNL   -0.0379
     15 N           3.2643    1.2024    0.2260 N.am      1 UNL   -0.2987
     16 C           4.4703    1.8126   -0.0961 C.2       1 UNL    0.2437
     17 O           4.7842    2.9126    0.3252 O.2       1 UNL   -0.2719
     18 C           5.3945    1.0293   -0.9976 C.ar      1 UNL    0.0371
     19 C           5.0671   -0.2613   -1.4710 C.ar      1 UNL   -0.0494
     20 C           5.9500   -0.9613   -2.3098 C.ar      1 UNL   -0.0570
     21 C           7.1745   -0.3886   -2.6915 C.ar      1 UNL   -0.0341
     22 C           7.5069    0.8948   -2.2274 C.ar      1 UNL   -0.0570
     23 C           6.6258    1.5956   -1.3880 C.ar      1 UNL   -0.0494
     24 C           8.1238   -1.1458   -3.6048 C.3       1 UNL    0.0208
     25 N           7.7781   -0.9473   -5.0180 N.4       1 UNL   -0.3086
     26 C           8.6692   -1.6500   -5.9506 C.3       1 UNL    0.0223
     27 C           8.2707   -1.4001   -7.3989 C.ar      1 UNL   -0.0154
     28 C           7.5272   -2.3773   -8.0881 C.ar      1 UNL   -0.0548
     29 C           7.1425   -2.1705   -9.4229 C.ar      1 UNL   -0.0431
     30 C           7.4983   -0.9815  -10.0781 C.ar      1 UNL    0.0421
     31 C           8.2365    0.0007   -9.3995 C.ar      1 UNL   -0.0245
     32 C           8.6222   -0.2049   -8.0639 C.ar      1 UNL    0.0465
     33 CL          9.5360    1.0560   -7.2559 Cl        1 UNL   -0.0839
     34 CL          7.0185   -0.7220  -11.7417 Cl        1 UNL   -0.0843
     35 C          -0.2767    1.0984    2.6843 C.3       1 UNL   -0.0394
     36 H           2.5906    0.2250    6.2821 H         1 UNL    0.0623
     37 H           0.3618    0.3591    5.2117 H         1 UNL    0.0626
     38 H           4.4448    1.5246    2.6326 H         1 UNL    0.0627
     39 H           4.6320    0.8157    4.9855 H         1 UNL    0.0623
     40 H           1.2855    1.2840    0.6737 H         1 UNL    0.0624
     41 H           0.8488    5.6461   -1.3310 H         1 UNL    0.0627
     42 H           1.4367    7.0848    0.6278 H         1 UNL    0.0639
     43 H           2.3380    5.9908    2.7071 H         1 UNL    0.0840
     44 H           1.9630    2.4396   -1.9332 H         1 UNL    0.0280
     45 H           0.6108    3.5055   -2.3281 H         1 UNL    0.0280
     46 H           0.3557    2.1409   -1.2369 H         1 UNL    0.0280
     47 H           3.1050    0.2818   -0.1589 H         1 UNL    0.1508
     48 H           4.1308   -0.7370   -1.1979 H         1 UNL    0.0631
     49 H           5.6799   -1.9511   -2.6676 H         1 UNL    0.0626
     50 H           8.4482    1.3525   -2.5190 H         1 UNL    0.0626
     51 H           6.9053    2.5872   -1.0428 H         1 UNL    0.0631
     52 H           8.0834   -2.2150   -3.3590 H         1 UNL    0.0479
     53 H           9.1503   -0.8021   -3.4222 H         1 UNL    0.0479
     54 H           7.7960    0.0505   -5.2282 H         1 UNL    0.1229
     55 H           8.6358   -2.7281   -5.7468 H         1 UNL    0.0480
     56 H           9.7057   -1.3231   -5.7969 H         1 UNL    0.0480
     57 H           7.2436   -3.2986   -7.5868 H         1 UNL    0.0627
     58 H           6.5686   -2.9300   -9.9463 H         1 UNL    0.0639
     59 H           8.5081    0.9217   -9.9074 H         1 UNL    0.0654
     60 H          -1.0562    0.9620    3.4444 H         1 UNL    0.0280
     61 H          -0.4270    0.3272    1.9187 H         1 UNL    0.0280
     62 H          -0.4458    2.0785    2.2209 H         1 UNL    0.0280
@<TRIPOS>BOND
     1    1    2 ar
     2    1    6 ar
     3    1   36 1
     4    2    3 ar
     5    2   37 1
     6    3    4 ar
     7    3   35 1
     8    4    5 ar
     9    4    7 1
    10    5    6 ar
    11    5   38 1
    12    6   39 1
    13    7    8 1
    14    7   15 1
    15    7   40 1
    16    8    9 ar
    17    8   13 ar
    18    9   10 ar
    19    9   14 1
    20   10   11 ar
    21   10   41 1
    22   11   12 ar
    23   11   42 1
    24   12   13 ar
    25   12   43 1
    26   14   44 1
    27   14   45 1
    28   14   46 1
    29   15   16 am
    30   15   47 1
    31   16   17 2
    32   16   18 1
    33   18   19 ar
    34   18   23 ar
    35   19   20 ar
    36   19   48 1
    37   20   21 ar
    38   20   49 1
    39   21   22 ar
    40   21   24 1
    41   22   23 ar
    42   22   50 1
    43   23   51 1
    44   24   25 1
    45   24   52 1
    46   24   53 1
    47   25   26 1
    48   25   54 1
    49   26   27 1
    50   26   55 1
    51   26   56 1
    52   27   28 ar
    53   27   32 ar
    54   28   29 ar
    55   28   57 1
    56   29   30 ar
    57   29   58 1
    58   30   31 ar
    59   30   34 1
    60   31   32 ar
    61   31   59 1
    62   32   33 1
    63   35   60 1
    64   35   61 1
    65   35   62 1
@<TRIPOS>SUBSTRUCTURE
     1 UNL     1 RESIDUE           4 A     UNL     0 ROOT
@<TRIPOS>MOLECULE
oleObject79.pdb
102 108 1 0 0
SMALL
NO_CHARGES


@<TRIPOS>ATOM
      1 C           1.9416    3.2294    4.4153 C.ar      1 UNL   -0.0620
      2 C           2.8434    4.0613    3.7373 C.ar      1 UNL   -0.0590
      3 C           3.4634    3.6347    2.5465 C.ar      1 UNL   -0.0456
      4 C           3.1710    2.3474    2.0227 C.ar      1 UNL   -0.0185
      5 C           2.2598    1.5249    2.7202 C.ar      1 UNL   -0.0565
      6 C           1.6499    1.9590    3.9057 C.ar      1 UNL   -0.0619
      7 C           3.7761    1.8466    0.6956 C.3       1 UNL    0.0931
      8 C           4.8528    0.7548    0.8401 C.ar      1 UNL    0.0683
      9 C           5.8147    0.5277   -0.1774 C.ar      1 UNL   -0.0272
     10 C           6.7715   -0.4862    0.0179 C.ar      1 UNL   -0.0559
     11 C           6.7450   -1.2325    1.2046 C.ar      1 UNL   -0.0435
     12 C           5.7604   -0.9401    2.1594 C.ar      1 UNL    0.0272
     13 N           4.8407    0.0263    1.9809 N.ar      1 UNL   -0.2587
     14 C           5.8440    1.3406   -1.4677 C.3       1 UNL   -0.0379
     15 N           2.7135    1.5413   -0.3029 N.am      1 UNL   -0.2918
     16 C           2.1969    2.5518   -1.1169 C.2       1 UNL    0.2179
     17 O           2.8874    3.5134   -1.4112 O.2       1 UNL   -0.2772
     18 C           0.6521    2.6055   -1.2618 C.3       1 UNL    0.0361
     19 C           0.1611    3.7815   -2.1540 C.3       1 UNL   -0.0412
     20 C           0.2680    5.1734   -1.4718 C.3       1 UNL   -0.0453
     21 C          -0.3704    5.2453   -0.0525 C.3       1 UNL   -0.0139
     22 C           0.0998    6.5585    0.6324 C.3       1 UNL    0.0171
     23 N          -0.5549    6.7370    1.9443 N.pl3     1 UNL   -0.3290
     24 C          -2.0255    6.8412    1.8726 C.3       1 UNL    0.0115
     25 C          -2.6266    5.5941    1.1823 C.3       1 UNL   -0.0368
     26 C          -1.9281    5.2874   -0.1663 C.3       1 UNL   -0.0446
     27 C           0.1803    7.0148    3.1015 C.ar      1 UNL    0.0476
     28 C           1.1972    7.9880    3.0471 C.ar      1 UNL   -0.0375
     29 C           1.9801    8.2785    4.1749 C.ar      1 UNL   -0.0388
     30 C           1.7801    7.5866    5.3793 C.ar      1 UNL    0.0318
     31 C           0.7549    6.6255    5.4475 C.ar      1 UNL   -0.0202
     32 C          -0.0357    6.3337    4.3230 C.ar      1 UNL    0.0636
     33 CL         -1.2297    5.0588    4.4967 Cl        1 UNL   -0.0822
     34 N           2.5768    7.9017    6.4782 N.pl3     1 UNL   -0.3149
     35 C           2.9543    7.1526    7.5914 C.ar      1 UNL    0.0302
     36 C           2.9837    5.7459    7.5744 C.ar      1 UNL   -0.0402
     37 C           3.3953    5.0261    8.7074 C.ar      1 UNL   -0.0525
     38 C           3.7990    5.6873    9.8939 C.ar      1 UNL   -0.0182
     39 C           3.7809    7.1042    9.8871 C.ar      1 UNL   -0.0525
     40 C           3.3738    7.8233    8.7515 C.ar      1 UNL   -0.0402
     41 C           4.2388    4.9190   11.1064 C.ar      1 UNL   -0.0177
     42 C           4.8489    3.6441   10.9884 C.ar      1 UNL   -0.0439
     43 C           5.2656    2.9070   12.1184 C.ar      1 UNL    0.0111
     44 C           5.0640    3.4624   13.3989 C.ar      1 UNL   -0.0518
     45 C           4.4643    4.7218   13.5420 C.ar      1 UNL   -0.0609
     46 C           4.0574    5.4422   12.4098 C.ar      1 UNL   -0.0543
     47 C           5.8689    1.6538   11.9715 C.2       1 UNL    0.1014
     48 N           5.7330    0.7217   12.8415 N.3       1 UNL   -0.2892
     49 N           6.6283    1.3775   10.9026 N.3       1 UNL   -0.2870
     50 C           0.1232    4.0344    0.7992 C.3       1 UNL   -0.0453
     51 C          -0.0734    2.6685    0.1075 C.3       1 UNL   -0.0412
     52 C           2.2536    0.1403   -0.4219 C.3       1 UNL    0.0037
     53 C           4.4167    4.6004    1.8506 C.3       1 UNL   -0.0394
     54 H           1.4667    3.5691    5.3306 H         1 UNL    0.0623
     55 H           3.0567    5.0480    4.1382 H         1 UNL    0.0626
     56 H           2.0182    0.5376    2.3410 H         1 UNL    0.0627
     57 H           0.9500    1.3117    4.4259 H         1 UNL    0.0623
     58 H           4.3325    2.6878    0.2792 H         1 UNL    0.0626
     59 H           7.5250   -0.6926   -0.7369 H         1 UNL    0.0627
     60 H           7.4720   -2.0195    1.3819 H         1 UNL    0.0639
     61 H           5.7055   -1.4945    3.0955 H         1 UNL    0.0840
     62 H           4.9127    1.2199   -2.0341 H         1 UNL    0.0280
     63 H           6.6661    1.0281   -2.1235 H         1 UNL    0.0280
     64 H           5.9810    2.4093   -1.2617 H         1 UNL    0.0280
     65 H           0.3537    1.6769   -1.7634 H         1 UNL    0.0401
     66 H          -0.8876    3.6028   -2.4234 H         1 UNL    0.0275
     67 H           0.7199    3.7904   -3.0987 H         1 UNL    0.0275
     68 H          -0.1865    5.9293   -2.1252 H         1 UNL    0.0273
     69 H           1.3255    5.4532   -1.3990 H         1 UNL    0.0273
     70 H          -0.1395    7.4144   -0.0121 H         1 UNL    0.0474
     71 H           1.1908    6.5296    0.7525 H         1 UNL    0.0474
     72 H          -2.2931    7.7333    1.2920 H         1 UNL    0.0468
     73 H          -2.4613    6.9583    2.8724 H         1 UNL    0.0468
     74 H          -3.6996    5.7499    1.0148 H         1 UNL    0.0283
     75 H          -2.5404    4.7274    1.8482 H         1 UNL    0.0283
     76 H          -2.2114    6.0746   -0.8773 H         1 UNL    0.0273
     77 H          -2.3224    4.3512   -0.5780 H         1 UNL    0.0273
     78 H           1.3797    8.5318    2.1248 H         1 UNL    0.0644
     79 H           2.7571    9.0347    4.1063 H         1 UNL    0.0643
     80 H           0.5620    6.0997    6.3774 H         1 UNL    0.0659
     81 H           2.9671    8.8350    6.4551 H         1 UNL    0.1528
     82 H           2.7065    5.2011    6.6786 H         1 UNL    0.0643
     83 H           3.3874    3.9416    8.6616 H         1 UNL    0.0630
     84 H           4.1054    7.6578   10.7625 H         1 UNL    0.0630
     85 H           3.3791    8.9094    8.7766 H         1 UNL    0.0643
     86 H           5.0075    3.2255    9.9994 H         1 UNL    0.0637
     87 H           5.3822    2.9275   14.2895 H         1 UNL    0.0630
     88 H           4.3135    5.1404   14.5331 H         1 UNL    0.0623
     89 H           3.5801    6.4070   12.5505 H         1 UNL    0.0629
     90 H           5.1291    1.0277   13.6074 H         1 UNL    0.1889
     91 H           7.1143    2.1293   10.4171 H         1 UNL    0.1258
     92 H           7.2559    0.5758   10.9276 H         1 UNL    0.1258
     93 H          -0.3680    4.0111    1.7783 H         1 UNL    0.0273
     94 H           1.1913    4.1648    1.0075 H         1 UNL    0.0273
     95 H          -1.1437    2.4813   -0.0401 H         1 UNL    0.0275
     96 H           0.2737    1.8716    0.7733 H         1 UNL    0.0275
     97 H           1.1618    0.0818   -0.3509 H         1 UNL    0.0433
     98 H           2.6737   -0.4894    0.3706 H         1 UNL    0.0433
     99 H           2.5682   -0.2625   -1.3926 H         1 UNL    0.0433
    100 H           4.5708    5.5146    2.4373 H         1 UNL    0.0280
    101 H           4.0230    4.9039    0.8724 H         1 UNL    0.0280
    102 H           5.4020    4.1425    1.6977 H         1 UNL    0.0280
@<TRIPOS>BOND
     1    1    2 ar
     2    1    6 ar
     3    1   54 1
     4    2    3 ar
     5    2   55 1
     6    3    4 ar
     7    3   53 1
     8    4    5 ar
     9    4    7 1
    10    5    6 ar
    11    5   56 1
    12    6   57 1
    13    7    8 1
    14    7   15 1
    15    7   58 1
    16    8    9 ar
    17    8   13 ar
    18    9   10 ar
    19    9   14 1
    20   10   11 ar
    21   10   59 1
    22   11   12 ar
    23   11   60 1
    24   12   13 ar
    25   12   61 1
    26   14   62 1
    27   14   63 1
    28   14   64 1
    29   15   16 am
    30   15   52 1
    31   16   17 2
    32   16   18 1
    33   18   19 1
    34   18   51 1
    35   18   65 1
    36   19   20 1
    37   19   66 1
    38   19   67 1
    39   20   21 1
    40   20   68 1
    41   20   69 1
    42   21   22 1
    43   21   26 1
    44   21   50 1
    45   22   23 1
    46   22   70 1
    47   22   71 1
    48   23   24 1
    49   23   27 1
    50   24   25 1
    51   24   72 1
    52   24   73 1
    53   25   26 1
    54   25   74 1
    55   25   75 1
    56   26   76 1
    57   26   77 1
    58   27   28 ar
    59   27   32 ar
    60   28   29 ar
    61   28   78 1
    62   29   30 ar
    63   29   79 1
    64   30   31 ar
    65   30   34 1
    66   31   32 ar
    67   31   80 1
    68   32   33 1
    69   34   35 1
    70   34   81 1
    71   35   36 ar
    72   35   40 ar
    73   36   37 ar
    74   36   82 1
    75   37   38 ar
    76   37   83 1
    77   38   39 ar
    78   38   41 1
    79   39   40 ar
    80   39   84 1
    81   40   85 1
    82   41   42 ar
    83   41   46 ar
    84   42   43 ar
    85   42   86 1
    86   43   44 ar
    87   43   47 1
    88   44   45 ar
    89   44   87 1
    90   45   46 ar
    91   45   88 1
    92   46   89 1
    93   47   48 1
    94   47   49 1
    95   48   90 1
    96   49   91 1
    97   49   92 1
    98   50   51 1
    99   50   93 1
   100   50   94 1
   101   51   95 1
   102   51   96 1
   103   52   97 1
   104   52   98 1
   105   52   99 1
   106   53  100 1
   107   53  101 1
   108   53  102 1
@<TRIPOS>SUBSTRUCTURE
     1 UNL     1 RESIDUE           4 A     UNL     0 ROOT
@<TRIPOS>MOLECULE
oleObject80.pdb
94 99 1 0 0
SMALL
NO_CHARGES


@<TRIPOS>ATOM
      1 C           5.4386   -1.8669    5.1264 C.ar      1 UNL   -0.0620
      2 C           4.1370   -1.3642    5.2636 C.ar      1 UNL   -0.0590
      3 C           3.5334   -0.6341    4.2213 C.ar      1 UNL   -0.0456
      4 C           4.2489   -0.4026    3.0189 C.ar      1 UNL   -0.0185
      5 C           5.5587   -0.9176    2.8959 C.ar      1 UNL   -0.0565
      6 C           6.1492   -1.6440    3.9403 C.ar      1 UNL   -0.0619
      7 C           3.6181    0.3992    1.8663 C.3       1 UNL    0.0931
      8 C           4.6440    1.1396    0.9898 C.ar      1 UNL    0.0683
      9 C           5.1847    2.3919    1.3772 C.ar      1 UNL   -0.0272
     10 C           6.1139    3.0145    0.5227 C.ar      1 UNL   -0.0559
     11 C           6.4764    2.3786   -0.6733 C.ar      1 UNL   -0.0435
     12 C           5.8997    1.1364   -0.9749 C.ar      1 UNL    0.0272
     13 N           5.0104    0.5331   -0.1644 N.ar      1 UNL   -0.2587
     14 C           4.7953    3.0788    2.6816 C.3       1 UNL   -0.0379
     15 N           2.6047   -0.3617    1.0798 N.am      1 UNL   -0.2918
     16 C           1.4164    0.2530    0.6691 C.2       1 UNL    0.2180
     17 O           1.0147    1.2636    1.2227 O.2       1 UNL   -0.2772
     18 C           0.8337   -0.1794   -0.6998 C.3       1 UNL    0.0385
     19 C           1.7126    0.2990   -1.8817 C.3       1 UNL   -0.0289
     20 C           1.5858    1.8185   -2.1144 C.3       1 UNL   -0.0010
     21 N           0.1825    2.2176   -2.3548 N.4       1 UNL   -0.3010
     22 C          -0.7327    1.8117   -1.2611 C.3       1 UNL   -0.0010
     23 C          -0.6246    0.3039   -0.9193 C.3       1 UNL   -0.0289
     24 C           0.0830    3.6457   -2.7295 C.3       1 UNL    0.0222
     25 C          -1.3161    4.0527   -3.2359 C.3       1 UNL    0.0661
     26 O          -1.2313    5.4051   -3.7194 O.3       1 UNL   -0.3432
     27 C          -2.3046    6.0955   -4.2490 C.ar      1 UNL    0.0937
     28 C          -3.5802    5.5103   -4.3814 C.ar      1 UNL   -0.0284
     29 C          -4.6435    6.2483   -4.9270 C.ar      1 UNL   -0.0381
     30 C          -4.4585    7.5805   -5.3349 C.ar      1 UNL    0.0319
     31 C          -3.1782    8.1563   -5.2223 C.ar      1 UNL   -0.0194
     32 C          -2.1109    7.4225   -4.6788 C.ar      1 UNL    0.0727
     33 CL         -0.5367    8.1859   -4.5561 Cl        1 UNL   -0.0814
     34 N          -5.5370    8.2693   -5.8869 N.pl3     1 UNL   -0.3136
     35 C          -5.8095    9.6328   -5.9930 C.ar      1 UNL    0.0489
     36 C          -6.7097   10.0863   -6.9733 C.ar      1 UNL    0.0488
     37 N          -7.0411   11.3836   -7.1291 N.ar      1 UNL   -0.2543
     38 C          -6.5123   12.3194   -6.3103 C.ar      1 UNL    0.0703
     39 C          -5.6092   11.9408   -5.2831 C.ar      1 UNL   -0.0339
     40 C          -5.2604   10.5904   -5.1207 C.ar      1 UNL   -0.0371
     41 C          -6.9345   13.7458   -6.5422 C.ar      1 UNL    0.0009
     42 C          -6.7744   14.7411   -5.5430 C.ar      1 UNL   -0.0402
     43 C          -7.1664   16.0806   -5.7477 C.ar      1 UNL    0.0375
     44 C          -7.7368   16.4386   -6.9869 C.ar      1 UNL   -0.0496
     45 C          -7.9117   15.4753   -7.9901 C.ar      1 UNL   -0.0608
     46 C          -7.5183   14.1474   -7.7710 C.ar      1 UNL   -0.0528
     47 C          -6.9688   17.0881   -4.6409 C.2       1 UNL    0.2403
     48 O          -6.4692   16.7928   -3.5701 O.2       1 UNL   -0.2722
     49 N          -7.3772   18.3834   -4.8790 N.am      1 UNL   -0.3251
     50 C           2.9507   -1.7474    0.6907 C.3       1 UNL    0.0037
     51 C           2.1130   -0.1151    4.4257 C.3       1 UNL   -0.0394
     52 H           5.8937   -2.4293    5.9367 H         1 UNL    0.0623
     53 H           3.5948   -1.5450    6.1875 H         1 UNL    0.0626
     54 H           6.1289   -0.7665    1.9848 H         1 UNL    0.0627
     55 H           7.1567   -2.0345    3.8285 H         1 UNL    0.0623
     56 H           3.0634    1.1983    2.3645 H         1 UNL    0.0626
     57 H           6.5490    3.9759    0.7806 H         1 UNL    0.0627
     58 H           7.1907    2.8368   -1.3509 H         1 UNL    0.0639
     59 H           6.1563    0.6081   -1.8922 H         1 UNL    0.0840
     60 H           3.7464    3.3999    2.6586 H         1 UNL    0.0280
     61 H           5.4076    3.9699    2.8678 H         1 UNL    0.0280
     62 H           4.9278    2.4079    3.5394 H         1 UNL    0.0280
     63 H           0.8020   -1.2750   -0.7145 H         1 UNL    0.0402
     64 H           1.4014   -0.2242   -2.7951 H         1 UNL    0.0288
     65 H           2.7637    0.0381   -1.7182 H         1 UNL    0.0288
     66 H           2.2049    2.0909   -2.9789 H         1 UNL    0.0431
     67 H           1.9826    2.3522   -1.2400 H         1 UNL    0.0431
     68 H          -1.7733    2.0167   -1.5386 H         1 UNL    0.0431
     69 H          -0.5134    2.4052   -0.3649 H         1 UNL    0.0431
     70 H          -1.0587   -0.2665   -1.7507 H         1 UNL    0.0288
     71 H          -1.2344    0.0771   -0.0355 H         1 UNL    0.0288
     72 H           0.8023    3.8586   -3.5311 H         1 UNL    0.0455
     73 H           0.3500    4.2762   -1.8713 H         1 UNL    0.0455
     74 H          -2.0464    3.9916   -2.4199 H         1 UNL    0.0586
     75 H          -1.6217    3.3780   -4.0457 H         1 UNL    0.0586
     76 H          -3.7602    4.4871   -4.0683 H         1 UNL    0.0652
     77 H          -5.6209    5.7837   -5.0240 H         1 UNL    0.0644
     78 H          -2.9973    9.1671   -5.5740 H         1 UNL    0.0659
     79 H          -6.2565    7.6720   -6.2739 H         1 UNL    0.1528
     80 H          -7.1762    9.3870   -7.6659 H         1 UNL    0.0861
     81 H          -5.1711   12.6787   -4.6201 H         1 UNL    0.0646
     82 H          -4.5900   10.3003   -4.3178 H         1 UNL    0.0644
     83 H          -6.3539   14.4688   -4.5812 H         1 UNL    0.0638
     84 H          -8.0511   17.4585   -7.1851 H         1 UNL    0.0631
     85 H          -8.3526   15.7582   -8.9419 H         1 UNL    0.0623
     86 H          -7.6614   13.4266   -8.5710 H         1 UNL    0.0630
     87 H          -7.7924   18.6283   -5.7678 H         1 UNL    0.1458
     88 H          -7.2557   19.0777   -4.1527 H         1 UNL    0.1458
     89 H           3.8755   -2.0864    1.1691 H         1 UNL    0.0433
     90 H           3.0943   -1.8105   -0.3942 H         1 UNL    0.0433
     91 H           2.1391   -2.4240    0.9860 H         1 UNL    0.0433
     92 H           1.7036   -0.4235    5.3957 H         1 UNL    0.0280
     93 H           1.4350   -0.4976    3.6532 H         1 UNL    0.0280
     94 H           2.0822    0.9810    4.3945 H         1 UNL    0.0280
@<TRIPOS>BOND
     1    1    2 ar
     2    1    6 ar
     3    1   52 1
     4    2    3 ar
     5    2   53 1
     6    3    4 ar
     7    3   51 1
     8    4    5 ar
     9    4    7 1
    10    5    6 ar
    11    5   54 1
    12    6   55 1
    13    7    8 1
    14    7   15 1
    15    7   56 1
    16    8    9 ar
    17    8   13 ar
    18    9   10 ar
    19    9   14 1
    20   10   11 ar
    21   10   57 1
    22   11   12 ar
    23   11   58 1
    24   12   13 ar
    25   12   59 1
    26   14   60 1
    27   14   61 1
    28   14   62 1
    29   15   16 am
    30   15   50 1
    31   16   17 2
    32   16   18 1
    33   18   19 1
    34   18   23 1
    35   18   63 1
    36   19   20 1
    37   19   64 1
    38   19   65 1
    39   20   21 1
    40   20   66 1
    41   20   67 1
    42   21   22 1
    43   21   24 1
    44   22   23 1
    45   22   68 1
    46   22   69 1
    47   23   70 1
    48   23   71 1
    49   24   25 1
    50   24   72 1
    51   24   73 1
    52   25   26 1
    53   25   74 1
    54   25   75 1
    55   26   27 1
    56   27   28 ar
    57   27   32 ar
    58   28   29 ar
    59   28   76 1
    60   29   30 ar
    61   29   77 1
    62   30   31 ar
    63   30   34 1
    64   31   32 ar
    65   31   78 1
    66   32   33 1
    67   34   35 1
    68   34   79 1
    69   35   36 ar
    70   35   40 ar
    71   36   37 ar
    72   36   80 1
    73   37   38 ar
    74   38   39 ar
    75   38   41 1
    76   39   40 ar
    77   39   81 1
    78   40   82 1
    79   41   42 ar
    80   41   46 ar
    81   42   43 ar
    82   42   83 1
    83   43   44 ar
    84   43   47 1
    85   44   45 ar
    86   44   84 1
    87   45   46 ar
    88   45   85 1
    89   46   86 1
    90   47   48 2
    91   47   49 am
    92   49   87 1
    93   49   88 1
    94   50   89 1
    95   50   90 1
    96   50   91 1
    97   51   92 1
    98   51   93 1
    99   51   94 1
@<TRIPOS>SUBSTRUCTURE
     1 UNL     1 RESIDUE           4 A     UNL     0 ROOT

