
##########                                Name:    ZINC000599797189
##########                DOCK_Rotatable_Bonds:                  13
##########                         Heavy_Atoms:                  23
##########                    Molecular_Weight:             329.313
##########                DOCK_Rotatable_Bonds:                  13
##########                       Formal_Charge:          0.00999949
##########                     HBond_Acceptors:                  11
##########                        HBond_Donors:                   3
##########                         Heavy_Atoms:                  23
##########                          Grid_Score:          -45.269520
##########                     Grid_vdw_energy:          -36.812237
##########                      Grid_es_energy:           -8.457284
##########           Internal_energy_repulsive:           13.708624

@<TRIPOS>MOLECULE
ZINC000599797189
 42 42 1 0 0
SMALL
USER_CHARGES


@<TRIPOS>ATOM
      1 C1        -15.6323   -3.1832   57.2526 C.3     1  ZINC000599797189   -0.1500
      2 C2        -14.7450   -4.1124   58.0835 C.3     1  ZINC000599797189    0.0600
      3 O3        -13.3827   -3.6100   58.0817 O.3     1  ZINC000599797189   -0.3600
      4 C4        -12.5853   -4.0148   57.0808 C.2     1  ZINC000599797189    0.4500
      5 O5        -12.9357   -4.9157   56.3558 O.2     1  ZINC000599797189   -0.4800
      6 C6        -11.2529   -3.3457   56.8612 C.3     1  ZINC000599797189    0.1500
      7 N7        -10.4711   -3.3965   58.0991 N.pl3   1  ZINC000599797189   -0.3800
      8 C8        -10.1073   -4.4988   58.7759 C.2     1  ZINC000599797189    0.2800
      9 N9         -9.4193   -4.1259   59.8248 N.2     1  ZINC000599797189   -0.5100
     10 C10        -9.3226   -2.7934   59.8518 C.2     1  ZINC000599797189    0.4700
     11 N11        -8.6578   -2.0449   60.8288 N.am    1  ZINC000599797189   -0.6400
     12 C12        -9.3639   -1.3129   61.7134 C.2     1  ZINC000599797189    0.7100
     13 O13       -10.5785   -1.3020   61.6611 O.2     1  ZINC000599797189   -0.5300
     14 N14        -8.7234   -0.5930   62.6557 N.am    1  ZINC000599797189   -0.7300
     15 C15        -9.4908    0.2012   63.6182 C.3     1  ZINC000599797189    0.1100
     16 C16        -8.7679    0.2064   64.9666 C.3     1  ZINC000599797189    0.1100
     17 H17        -9.4422    0.5763   65.7389 H       1  ZINC000599797189    0.1200
     18 O18        -8.3553   -1.1227   65.2909 O.3     1  ZINC000599797189   -0.5400
     19 C19        -7.5401    1.1155   64.8835 C.3     1  ZINC000599797189   -0.1500
     20 C20        -6.7900    1.0674   66.1897 C.2     1  ZINC000599797189    0.4600
     21 O21        -7.3517    0.7035   67.1957 O.2     1  ZINC000599797189   -0.4900
     22 O22        -5.4981    1.4286   66.2354 O.3     1  ZINC000599797189   -0.3600
     23 C23        -4.8823    1.8339   64.9844 C.3     1  ZINC000599797189    0.0400
     24 N24        -9.9489   -2.3030   58.8090 N.2     1  ZINC000599797189   -0.3200
     25 H25       -16.6550   -3.5603   57.2539 H       1  ZINC000599797189    0.0800
     26 H26       -15.6136   -2.1821   57.6831 H       1  ZINC000599797189    0.0700
     27 H27       -15.2604   -3.1454   56.2287 H       1  ZINC000599797189    0.0700
     28 H28       -15.1169   -4.1502   59.1074 H       1  ZINC000599797189    0.0700
     29 H29       -14.7637   -5.1135   57.6529 H       1  ZINC000599797189    0.0700
     30 H30       -10.7126   -3.8635   56.0687 H       1  ZINC000599797189    0.1500
     31 H31       -11.4112   -2.3063   56.5738 H       1  ZINC000599797189    0.1300
     32 H32       -10.3424   -5.5166   58.5019 H       1  ZINC000599797189    0.2300
     33 H33        -7.6887   -2.0527   60.8698 H       1  ZINC000599797189    0.4200
     34 H34        -7.7542   -0.6008   62.6967 H       1  ZINC000599797189    0.4000
     35 H35        -9.5850    1.2236   63.2524 H       1  ZINC000599797189    0.0800
     36 H36       -10.4828   -0.2341   63.7394 H       1  ZINC000599797189    0.0800
     37 H37        -7.5778   -1.4238   64.8011 H       1  ZINC000599797189    0.3800
     38 H38        -6.8894    0.7748   64.0781 H       1  ZINC000599797189    0.1200
     39 H39        -7.8585    2.1389   64.6850 H       1  ZINC000599797189    0.1200
     40 H40        -4.9311    1.0105   64.2719 H       1  ZINC000599797189    0.0600
     41 H41        -5.4133    2.6959   64.5805 H       1  ZINC000599797189    0.0600
     42 H42        -3.8401    2.0996   65.1619 H       1  ZINC000599797189    0.1000
@<TRIPOS>BOND
     1     1     2    1
     2     1    25    1
     3     1    26    1
     4     1    27    1
     5     2     3    1
     6     2    28    1
     7     2    29    1
     8     3     4    1
     9     4     5    2
    10     4     6    1
    11     6     7    1
    12     6    30    1
    13     6    31    1
    14     7    24    1
    15     7     8    1
    16     8     9    2
    17     8    32    1
    18     9    10    1
    19    10    11    1
    20    10    24    2
    21    11    12   am
    22    11    33    1
    23    12    13    2
    24    12    14   am
    25    14    15    1
    26    14    34    1
    27    15    16    1
    28    15    35    1
    29    15    36    1
    30    16    17    1
    31    16    18    1
    32    16    19    1
    33    18    37    1
    34    19    20    1
    35    19    38    1
    36    19    39    1
    37    20    21    2
    38    20    22    1
    39    22    23    1
    40    23    40    1
    41    23    41    1
    42    23    42    1
@<TRIPOS>SUBSTRUCTURE
     1 ZINC000599797189        1 TEMP              0 ****  ****    0 ROOT


##########                                Name:    ZINC001596273020
##########                DOCK_Rotatable_Bonds:                  11
##########                         Heavy_Atoms:                  25
##########                    Molecular_Weight:             355.478
##########                DOCK_Rotatable_Bonds:                  11
##########                       Formal_Charge:          -0.0499996
##########                     HBond_Acceptors:                   7
##########                        HBond_Donors:                   2
##########                         Heavy_Atoms:                  25
##########                          Grid_Score:          -43.889851
##########                     Grid_vdw_energy:          -35.083771
##########                      Grid_es_energy:           -8.806081
##########           Internal_energy_repulsive:           26.007225

@<TRIPOS>MOLECULE
ZINC001596273020
 58 59 1 0 0
SMALL
USER_CHARGES


@<TRIPOS>ATOM
      1 C1         -9.2503    3.1028   65.7328 C.3     1  ZINC001596273020   -0.1900
      2 C2         -9.6139    1.8022   65.0138 C.3     1  ZINC001596273020   -0.0200
      3 N3         -8.4087    1.2282   64.4006 N.4     1  ZINC001596273020   -0.3900
      4 H4         -8.0187    1.8878   63.7441 H       1  ZINC001596273020    0.4300
      5 C5         -7.4195    0.9349   65.4462 C.3     1  ZINC001596273020   -0.0100
      6 C6         -8.0109   -0.0652   66.4415 C.3     1  ZINC001596273020   -0.1900
      7 C7         -8.7606   -0.0125   63.6973 C.3     1  ZINC001596273020   -0.0100
      8 C8         -9.7058    0.3088   62.5379 C.3     1  ZINC001596273020    0.0300
      9 O9        -10.0812   -0.9029   61.8798 O.3     1  ZINC001596273020   -0.3900
     10 C10        -8.9906   -1.5932   61.2666 C.3     1  ZINC001596273020    0.0500
     11 C11        -9.4896   -2.9143   60.6778 C.3     1  ZINC001596273020    0.1400
     12 N12       -10.7510   -2.6872   59.9682 N.am    1  ZINC001596273020   -0.7500
     13 C13       -10.7384   -2.3341   58.6676 C.2     1  ZINC001596273020    0.7200
     14 O14        -9.6801   -2.2025   58.0836 O.2     1  ZINC001596273020   -0.6000
     15 N15       -11.8988   -2.1267   58.0143 N.am    1  ZINC001596273020   -0.6300
     16 C16       -12.0860   -1.7440   56.5929 C.3     1  ZINC001596273020    0.1100
     17 C17       -13.2892   -2.6179   56.1350 C.3     1  ZINC001596273020   -0.0800
     18 H18       -13.8736   -2.0779   55.3900 H       1  ZINC001596273020    0.1200
     19 C19       -12.7257   -3.8848   55.5230 C.3     1  ZINC001596273020   -0.1000
     20 C20       -13.6512   -5.0825   55.6851 C.3     1  ZINC001596273020   -0.1200
     21 C21       -13.8903   -5.2991   57.1853 C.3     1  ZINC001596273020   -0.1200
     22 C22       -14.7207   -4.1252   57.6942 C.3     1  ZINC001596273020   -0.0800
     23 C23       -14.1081   -2.7977   57.3943 C.3     1  ZINC001596273020   -0.1400
     24 C24       -15.2605   -1.8361   57.2597 C.2     1  ZINC001596273020    0.5000
     25 O25       -16.3587   -2.1357   57.6966 O.co2   1  ZINC001596273020   -0.6900
     26 O26       -15.0949   -0.7585   56.7139 O.co2   1  ZINC001596273020   -0.6900
     27 C27       -13.2766   -2.2358   58.5526 C.3     1  ZINC001596273020    0.1600
     28 H28        -8.5986    2.8808   66.5779 H       1  ZINC001596273020    0.0800
     29 H29        -8.7341    3.7684   65.0410 H       1  ZINC001596273020    0.0800
     30 H30       -10.1591    3.5858   66.0919 H       1  ZINC001596273020    0.1000
     31 H31       -10.0290    1.0943   65.7312 H       1  ZINC001596273020    0.1300
     32 H32       -10.3522    2.0095   64.2391 H       1  ZINC001596273020    0.1300
     33 H33        -6.5252    0.5092   64.9912 H       1  ZINC001596273020    0.1300
     34 H34        -7.1585    1.8556   65.9680 H       1  ZINC001596273020    0.1300
     35 H35        -8.8386    0.4007   66.9764 H       1  ZINC001596273020    0.0800
     36 H36        -8.3731   -0.9417   65.9042 H       1  ZINC001596273020    0.0800
     37 H37        -7.2424   -0.3672   67.1532 H       1  ZINC001596273020    0.1000
     38 H38        -7.8554   -0.4796   63.3095 H       1  ZINC001596273020    0.1400
     39 H39        -9.2538   -0.6952   64.3896 H       1  ZINC001596273020    0.1400
     40 H40       -10.5971    0.8045   62.9224 H       1  ZINC001596273020    0.1000
     41 H41        -9.2016    0.9658   61.8294 H       1  ZINC001596273020    0.0700
     42 H42        -8.5712   -0.9766   60.4717 H       1  ZINC001596273020    0.0700
     43 H43        -8.2227   -1.7953   62.0133 H       1  ZINC001596273020    0.0700
     44 H44        -8.7470   -3.3058   59.9827 H       1  ZINC001596273020    0.0900
     45 H45        -9.6492   -3.6330   61.4816 H       1  ZINC001596273020    0.0700
     46 H46       -11.5952   -2.7910   60.4344 H       1  ZINC001596273020    0.3900
     47 H47       -12.3278   -0.6844   56.5096 H       1  ZINC001596273020    0.0700
     48 H48       -11.1956   -1.9822   56.0112 H       1  ZINC001596273020    0.0600
     49 H49       -12.5534   -3.7151   54.4602 H       1  ZINC001596273020    0.0500
     50 H50       -11.7718   -4.1109   55.9995 H       1  ZINC001596273020    0.0400
     51 H51       -14.5998   -4.8852   55.1856 H       1  ZINC001596273020    0.0700
     52 H52       -13.1852   -5.9689   55.2547 H       1  ZINC001596273020    0.0500
     53 H53       -14.4328   -6.2314   57.3423 H       1  ZINC001596273020    0.0600
     54 H54       -12.9361   -5.3324   57.7108 H       1  ZINC001596273020    0.0500
     55 H55       -15.7076   -4.1688   57.2333 H       1  ZINC001596273020    0.0600
     56 H56       -14.8370   -4.2209   58.7738 H       1  ZINC001596273020    0.0600
     57 H57       -13.3032   -2.9157   59.4040 H       1  ZINC001596273020    0.0700
     58 H58       -13.6434   -1.2505   58.8405 H       1  ZINC001596273020    0.0700
@<TRIPOS>BOND
     1     1     2    1
     2     1    28    1
     3     1    29    1
     4     1    30    1
     5     2     3    1
     6     2    31    1
     7     2    32    1
     8     3     4    1
     9     3     5    1
    10     3     7    1
    11     5     6    1
    12     5    33    1
    13     5    34    1
    14     6    35    1
    15     6    36    1
    16     6    37    1
    17     7     8    1
    18     7    38    1
    19     7    39    1
    20     8     9    1
    21     8    40    1
    22     8    41    1
    23     9    10    1
    24    10    11    1
    25    10    42    1
    26    10    43    1
    27    11    12    1
    28    11    44    1
    29    11    45    1
    30    12    13   am
    31    12    46    1
    32    13    14    2
    33    13    15   am
    34    15    27    1
    35    15    16    1
    36    16    17    1
    37    16    47    1
    38    16    48    1
    39    17    18    1
    40    17    23    1
    41    17    19    1
    42    19    20    1
    43    19    49    1
    44    19    50    1
    45    20    21    1
    46    20    51    1
    47    20    52    1
    48    21    22    1
    49    21    53    1
    50    21    54    1
    51    22    23    1
    52    22    55    1
    53    22    56    1
    54    23    24    1
    55    23    27    1
    56    24    25   ar
    57    24    26   ar
    58    27    57    1
    59    27    58    1
@<TRIPOS>SUBSTRUCTURE
     1 ZINC001596273020        1 TEMP              0 ****  ****    0 ROOT


##########                                Name:    ZINC001591898574
##########                DOCK_Rotatable_Bonds:                  10
##########                         Heavy_Atoms:                  26
##########                    Molecular_Weight:             383.434
##########                DOCK_Rotatable_Bonds:                  10
##########                       Formal_Charge:         5.96046e-08
##########                     HBond_Acceptors:                  13
##########                        HBond_Donors:                   3
##########                         Heavy_Atoms:                  26
##########                          Grid_Score:          -42.945374
##########                     Grid_vdw_energy:          -40.417828
##########                      Grid_es_energy:           -2.527547
##########           Internal_energy_repulsive:           10.723216

@<TRIPOS>MOLECULE
ZINC001591898574
 47 48 1 0 0
SMALL
USER_CHARGES


@<TRIPOS>ATOM
      1 C1        -10.6881    1.9895   60.4427 C.3     1  ZINC001591898574   -0.1100
      2 C2        -10.0525    0.8766   61.2356 C.ar    1  ZINC001591898574    0.2300
      3 C3         -9.8189    1.0286   62.5908 C.ar    1  ZINC001591898574   -0.2400
      4 C4         -9.2280   -0.0287   63.2870 C.ar    1  ZINC001591898574    0.3000
      5 C5         -8.9573    0.0852   64.7416 C.2     1  ZINC001591898574    0.2100
      6 N6         -9.4109    1.0171   65.5565 N.2     1  ZINC001591898574   -0.2500
      7 N7         -8.9537    0.7668   66.7351 N.pl3   1  ZINC001591898574   -0.2200
      8 N8         -8.2252   -0.2937   66.6931 N.2     1  ZINC001591898574   -0.0400
      9 N9         -8.2086   -0.7429   65.4841 N.2     1  ZINC001591898574   -0.2500
     10 N10        -8.9119   -1.1394   62.6260 N.ar    1  ZINC001591898574   -0.5500
     11 C11        -9.1528   -1.2435   61.3285 C.ar    1  ZINC001591898574    0.5800
     12 N12        -8.8117   -2.4128   60.6710 N.pl3   1  ZINC001591898574   -0.7000
     13 C13        -9.8561   -3.2486   60.0734 C.3     1  ZINC001591898574    0.1400
     14 C14        -9.7811   -3.1460   58.5487 C.3     1  ZINC001591898574   -0.1500
     15 C15       -10.5823   -4.2882   57.9207 C.3     1  ZINC001591898574    0.1200
     16 N16       -10.3007   -4.3501   56.4844 N.am    1  ZINC001591898574   -0.7300
     17 C17       -11.1427   -3.7689   55.6070 C.2     1  ZINC001591898574    0.4900
     18 O18       -12.1327   -3.1934   56.0067 O.2     1  ZINC001591898574   -0.5300
     19 C19       -10.8540   -3.8341   54.1293 C.3     1  ZINC001591898574    0.1000
     20 N20       -11.5131   -2.7140   53.4532 N.am    1  ZINC001591898574   -0.9800
     21 C21       -12.9275   -2.8109   53.0840 C.3     1  ZINC001591898574    0.1000
     22 S22       -10.6592   -1.3381   53.1062 S.o2    1  ZINC001591898574    2.6100
     23 C23       -11.8612   -0.2538   52.2877 C.3     1  ZINC001591898574   -0.6600
     24 O24       -10.3028   -0.8165   54.3791 O.2     1  ZINC001591898574   -0.9500
     25 O25        -9.6651   -1.7656   52.1851 O.2     1  ZINC001591898574   -0.9600
     26 N26        -9.7167   -0.2589   60.6440 N.ar    1  ZINC001591898574   -0.5600
     27 H27       -11.7719    1.8743   60.4593 H       1  ZINC001591898574    0.0900
     28 H28       -10.4180    2.9494   60.8829 H       1  ZINC001591898574    0.0900
     29 H29       -10.3343    1.9497   59.4125 H       1  ZINC001591898574    0.0900
     30 H30       -10.0868    1.9434   63.0985 H       1  ZINC001591898574    0.1600
     31 H31        -9.1309    1.2947   67.5294 H       1  ZINC001591898574    0.4800
     32 H32        -7.8812   -2.6788   60.6059 H       1  ZINC001591898574    0.4200
     33 H33        -9.7086   -4.2855   60.3755 H       1  ZINC001591898574    0.0700
     34 H34       -10.8337   -2.9067   60.4130 H       1  ZINC001591898574    0.0700
     35 H35       -10.1972   -2.1911   58.2279 H       1  ZINC001591898574    0.0800
     36 H36        -8.7408   -3.2143   58.2307 H       1  ZINC001591898574    0.0800
     37 H37       -10.2979   -5.2312   58.3876 H       1  ZINC001591898574    0.0700
     38 H38       -11.6470   -4.1130   58.0751 H       1  ZINC001591898574    0.0700
     39 H39        -9.5084   -4.8093   56.1648 H       1  ZINC001591898574    0.4000
     40 H40        -9.7780   -3.7745   53.9664 H       1  ZINC001591898574    0.1200
     41 H41       -11.2310   -4.7742   53.7266 H       1  ZINC001591898574    0.1300
     42 H42       -13.5432   -2.4407   53.9038 H       1  ZINC001591898574    0.0600
     43 H43       -13.1120   -2.2122   52.1921 H       1  ZINC001591898574    0.0700
     44 H44       -13.1796   -3.8518   52.8816 H       1  ZINC001591898574    0.0700
     45 H45       -12.6926   -0.0568   52.9645 H       1  ZINC001591898574    0.1300
     46 H46       -11.3792    0.6869   52.0209 H       1  ZINC001591898574    0.1200
     47 H47       -12.2338   -0.7396   51.3860 H       1  ZINC001591898574    0.1300
@<TRIPOS>BOND
     1     1     2    1
     2     1    27    1
     3     1    28    1
     4     1    29    1
     5     2    26   ar
     6     2     3   ar
     7     3     4   ar
     8     3    30    1
     9     4     5    1
    10     4    10   ar
    11     5     9    1
    12     5     6    2
    13     6     7    1
    14     7     8    1
    15     7    31    1
    16     8     9    2
    17    10    11   ar
    18    11    12    1
    19    11    26   ar
    20    12    13    1
    21    12    32    1
    22    13    14    1
    23    13    33    1
    24    13    34    1
    25    14    15    1
    26    14    35    1
    27    14    36    1
    28    15    16    1
    29    15    37    1
    30    15    38    1
    31    16    17   am
    32    16    39    1
    33    17    18    2
    34    17    19    1
    35    19    20    1
    36    19    40    1
    37    19    41    1
    38    20    21    1
    39    20    22   am
    40    21    42    1
    41    21    43    1
    42    21    44    1
    43    22    23    1
    44    22    24    2
    45    22    25    2
    46    23    45    1
    47    23    46    1
    48    23    47    1
@<TRIPOS>SUBSTRUCTURE
     1 ZINC001591898574        1 TEMP              0 ****  ****    0 ROOT


##########                                Name:    ZINC000465642058
##########                DOCK_Rotatable_Bonds:                  10
##########                         Heavy_Atoms:                  31
##########                    Molecular_Weight:             420.511
##########                DOCK_Rotatable_Bonds:                  10
##########                       Formal_Charge:          1.2666e-07
##########                     HBond_Acceptors:                   7
##########                        HBond_Donors:                   2
##########                         Heavy_Atoms:                  31
##########                          Grid_Score:          -41.419704
##########                     Grid_vdw_energy:          -41.152740
##########                      Grid_es_energy:           -0.266965
##########           Internal_energy_repulsive:           16.545252

@<TRIPOS>MOLECULE
ZINC000465642058
 59 62 1 0 0
SMALL
USER_CHARGES


@<TRIPOS>ATOM
      1 C1         -9.7480    1.7196   57.3665 C.3     1  ZINC000465642058   -0.1500
      2 C2         -9.2272    1.6581   58.8039 C.3     1  ZINC000465642058    0.0500
      3 O3        -10.1403    0.9107   59.6098 O.3     1  ZINC000465642058   -0.3000
      4 C4         -9.6894    0.4841   60.8197 C.ar    1  ZINC000465642058    0.1200
      5 C5         -9.7465    1.3258   61.9216 C.ar    1  ZINC000465642058   -0.1600
      6 C6         -9.2896    0.8883   63.1452 C.ar    1  ZINC000465642058   -0.1300
      7 C7         -8.7752   -0.3926   63.2964 C.ar    1  ZINC000465642058    0.0700
      8 C8         -8.7161   -1.2311   62.1860 C.ar    1  ZINC000465642058   -0.0700
      9 C9         -9.1754   -0.7966   60.9604 C.ar    1  ZINC000465642058   -0.1100
     10 C10        -9.1072   -1.7128   59.7659 C.3     1  ZINC000465642058    0.1900
     11 N11       -10.4559   -1.9234   59.2342 N.am    1  ZINC000465642058   -0.7300
     12 C12       -10.7255   -3.0173   58.4945 C.2     1  ZINC000465642058    0.7100
     13 O13        -9.8489   -3.8287   58.2674 O.2     1  ZINC000465642058   -0.5900
     14 N14       -11.9667   -3.2118   58.0067 N.am    1  ZINC000465642058   -0.6200
     15 C15       -13.0233   -2.2351   58.2820 C.3     1  ZINC000465642058    0.1900
     16 C16       -13.7210   -2.5987   59.5674 C.2     1  ZINC000465642058    0.0500
     17 N17       -14.7875   -3.3489   59.6759 N.2     1  ZINC000465642058   -0.2700
     18 N18       -15.1192   -3.4443   61.0335 N.pl3   1  ZINC000465642058   -0.4700
     19 C19       -14.2159   -2.7264   61.7332 C.2     1  ZINC000465642058    0.0600
     20 C20       -13.3366   -2.1975   60.8511 C.2     1  ZINC000465642058   -0.2600
     21 C21       -12.2594   -4.4001   57.2013 C.3     1  ZINC000465642058    0.1700
     22 C22       -12.0065   -4.0960   55.7471 C.ar    1  ZINC000465642058   -0.1100
     23 C23       -12.7497   -4.7300   54.7691 C.ar    1  ZINC000465642058   -0.0900
     24 C24       -12.5176   -4.4510   53.4352 C.ar    1  ZINC000465642058   -0.1200
     25 C25       -11.5426   -3.5380   53.0794 C.ar    1  ZINC000465642058   -0.1200
     26 C26       -10.8001   -2.9034   54.0575 C.ar    1  ZINC000465642058   -0.1300
     27 C27       -11.0351   -3.1790   55.3915 C.ar    1  ZINC000465642058   -0.1100
     28 O28        -8.4039   -0.6255   64.5864 O.3     1  ZINC000465642058   -0.3000
     29 C29        -8.2400    0.6310   65.2657 C.3     1  ZINC000465642058    0.0800
     30 H30        -7.2134    0.9866   65.1774 H       1  ZINC000465642058    0.0900
     31 C31        -8.6447    0.5090   66.7362 C.3     1  ZINC000465642058   -0.1500
     32 C32        -9.2103    1.5623   64.5014 C.3     1  ZINC000465642058   -0.1100
     33 H33       -10.7242    2.2042   57.3542 H       1  ZINC000465642058    0.0700
     34 H34        -9.0514    2.2896   56.7519 H       1  ZINC000465642058    0.0800
     35 H35        -9.8393    0.7085   56.9697 H       1  ZINC000465642058    0.0700
     36 H36        -8.2510    1.1734   58.8163 H       1  ZINC000465642058    0.0600
     37 H37        -9.1359    2.6692   59.2008 H       1  ZINC000465642058    0.0600
     38 H38       -10.1484    2.3231   61.8199 H       1  ZINC000465642058    0.1300
     39 H39        -8.3126   -2.2279   62.2861 H       1  ZINC000465642058    0.1400
     40 H40        -8.4799   -1.2615   58.9972 H       1  ZINC000465642058    0.0700
     41 H41        -8.6815   -2.6702   60.0663 H       1  ZINC000465642058    0.0800
     42 H42       -11.1549   -1.2755   59.4144 H       1  ZINC000465642058    0.4000
     43 H43       -12.5845   -1.2418   58.3752 H       1  ZINC000465642058    0.1000
     44 H44       -13.7437   -2.2389   57.4640 H       1  ZINC000465642058    0.0900
     45 H45       -15.8663   -3.9390   61.4049 H       1  ZINC000465642058    0.4400
     46 H46       -14.1957   -2.6002   62.8057 H       1  ZINC000465642058    0.1800
     47 H47       -12.4913   -1.5709   61.0945 H       1  ZINC000465642058    0.1500
     48 H48       -11.6163   -5.2212   57.5180 H       1  ZINC000465642058    0.0900
     49 H49       -13.3032   -4.6830   57.3372 H       1  ZINC000465642058    0.0900
     50 H50       -13.5113   -5.4434   55.0470 H       1  ZINC000465642058    0.1300
     51 H51       -13.0978   -4.9469   52.6710 H       1  ZINC000465642058    0.1200
     52 H52       -11.3609   -3.3205   52.0372 H       1  ZINC000465642058    0.1200
     53 H53       -10.0381   -2.1902   53.7796 H       1  ZINC000465642058    0.1200
     54 H54       -10.4550   -2.6833   56.1557 H       1  ZINC000465642058    0.1200
     55 H55        -8.0028   -0.2202   67.2304 H       1  ZINC000465642058    0.0700
     56 H56        -8.5371    1.4777   67.2241 H       1  ZINC000465642058    0.0800
     57 H57        -9.6827    0.1826   66.8014 H       1  ZINC000465642058    0.0700
     58 H58        -8.7974    2.5672   64.4134 H       1  ZINC000465642058    0.0900
     59 H59       -10.1881    1.5855   64.9826 H       1  ZINC000465642058    0.1000
@<TRIPOS>BOND
     1     1     2    1
     2     1    33    1
     3     1    34    1
     4     1    35    1
     5     2     3    1
     6     2    36    1
     7     2    37    1
     8     3     4    1
     9     4     9   ar
    10     4     5   ar
    11     5     6   ar
    12     5    38    1
    13     6    32    1
    14     6     7   ar
    15     7     8   ar
    16     7    28    1
    17     8     9   ar
    18     8    39    1
    19     9    10    1
    20    10    11    1
    21    10    40    1
    22    10    41    1
    23    11    12   am
    24    11    42    1
    25    12    13    2
    26    12    14   am
    27    14    15    1
    28    14    21    1
    29    15    16    1
    30    15    43    1
    31    15    44    1
    32    16    20    1
    33    16    17    2
    34    17    18    1
    35    18    19    1
    36    18    45    1
    37    19    20    2
    38    19    46    1
    39    20    47    1
    40    21    22    1
    41    21    48    1
    42    21    49    1
    43    22    27   ar
    44    22    23   ar
    45    23    24   ar
    46    23    50    1
    47    24    25   ar
    48    24    51    1
    49    25    26   ar
    50    25    52    1
    51    26    27   ar
    52    26    53    1
    53    27    54    1
    54    28    29    1
    55    29    30    1
    56    29    31    1
    57    29    32    1
    58    31    55    1
    59    31    56    1
    60    31    57    1
    61    32    58    1
    62    32    59    1
@<TRIPOS>SUBSTRUCTURE
     1 ZINC000465642058        1 TEMP              0 ****  ****    0 ROOT


##########                                Name:    ZINC000552360217
##########                DOCK_Rotatable_Bonds:                  13
##########                         Heavy_Atoms:                  27
##########                    Molecular_Weight:             401.484
##########                DOCK_Rotatable_Bonds:                  13
##########                       Formal_Charge:          -0.0100002
##########                     HBond_Acceptors:                  10
##########                        HBond_Donors:                   3
##########                         Heavy_Atoms:                  27
##########                          Grid_Score:          -41.311085
##########                     Grid_vdw_energy:          -37.595406
##########                      Grid_es_energy:           -3.715678
##########           Internal_energy_repulsive:           16.601709

@<TRIPOS>MOLECULE
ZINC000552360217
 54 54 1 0 0
SMALL
USER_CHARGES


@<TRIPOS>ATOM
      1 C1        -12.1768   -0.5244   53.4014 C.3     1  ZINC000552360217    0.0800
      2 N2        -11.6345   -1.7912   52.9038 N.am    1  ZINC000552360217   -1.0000
      3 C3        -10.3152   -1.8237   52.2677 C.3     1  ZINC000552360217    0.0900
      4 S4        -12.5127   -3.1864   53.0605 S.o2    1  ZINC000552360217    2.7000
      5 O5        -13.7856   -2.9259   52.4851 O.2     1  ZINC000552360217   -0.9500
      6 O6        -11.6666   -4.2436   52.6297 O.2     1  ZINC000552360217   -0.9500
      7 C7        -12.7873   -3.4391   54.7825 C.ar    1  ZINC000552360217   -0.6900
      8 C8        -14.0643   -3.6988   55.2469 C.ar    1  ZINC000552360217    0.0100
      9 C9        -14.2885   -3.8989   56.5977 C.ar    1  ZINC000552360217   -0.1400
     10 C10       -13.2385   -3.8404   57.4904 C.ar    1  ZINC000552360217   -0.0300
     11 C11       -11.9475   -3.5787   57.0283 C.ar    1  ZINC000552360217   -0.1600
     12 C12       -10.8174   -3.5150   57.9793 C.2     1  ZINC000552360217    0.5600
     13 O13        -9.8593   -4.2492   57.8349 O.2     1  ZINC000552360217   -0.5300
     14 N14       -10.8493   -2.6430   59.0064 N.am    1  ZINC000552360217   -0.7100
     15 C15        -9.7285   -2.5786   59.9478 C.3     1  ZINC000552360217    0.1000
     16 C16        -9.5218   -1.1516   60.3859 C.2     1  ZINC000552360217    0.5100
     17 O17        -8.9823   -0.3608   59.6413 O.2     1  ZINC000552360217   -0.5400
     18 N18        -9.9363   -0.7543   61.6053 N.am    1  ZINC000552360217   -0.7200
     19 C19        -9.7368    0.6334   62.0306 C.3     1  ZINC000552360217    0.1400
     20 C20       -10.6417    0.9352   63.2268 C.3     1  ZINC000552360217    0.1000
     21 C21       -10.5309    2.4177   63.5888 C.3     1  ZINC000552360217   -0.1800
     22 C22       -12.0914    0.6054   62.8657 C.3     1  ZINC000552360217   -0.1800
     23 O23       -10.2362    0.1407   64.3432 O.3     1  ZINC000552360217   -0.3700
     24 C24        -8.8442    0.2380   64.6509 C.3     1  ZINC000552360217    0.0600
     25 C25        -8.5715   -0.4335   65.9983 C.3     1  ZINC000552360217    0.0800
     26 O26        -7.1948   -0.2667   66.3436 O.3     1  ZINC000552360217   -0.5700
     27 C27       -11.7274   -3.3831   55.6641 C.ar    1  ZINC000552360217    0.0400
     28 H28       -12.7479   -0.0381   52.6106 H       1  ZINC000552360217    0.0600
     29 H29       -12.8282   -0.7179   54.2537 H       1  ZINC000552360217    0.0900
     30 H30       -11.3577    0.1251   53.7102 H       1  ZINC000552360217    0.0800
     31 H31        -9.8929   -0.8188   52.2553 H       1  ZINC000552360217    0.0800
     32 H32        -9.6573   -2.4872   52.8290 H       1  ZINC000552360217    0.0700
     33 H33       -10.4135   -2.1890   51.2455 H       1  ZINC000552360217    0.0600
     34 H34       -14.8899   -3.7453   54.5522 H       1  ZINC000552360217    0.1500
     35 H35       -15.2879   -4.1009   56.9538 H       1  ZINC000552360217    0.1400
     36 H36       -13.4149   -3.9964   58.5443 H       1  ZINC000552360217    0.1400
     37 H37       -11.6142   -2.0580   59.1225 H       1  ZINC000552360217    0.4100
     38 H38        -9.9488   -3.1975   60.8178 H       1  ZINC000552360217    0.1000
     39 H39        -8.8241   -2.9441   59.4615 H       1  ZINC000552360217    0.1000
     40 H40       -10.3666   -1.3871   62.2013 H       1  ZINC000552360217    0.4100
     41 H41        -8.6953    0.7795   62.3168 H       1  ZINC000552360217    0.0800
     42 H42        -9.9853    1.3046   61.2084 H       1  ZINC000552360217    0.0900
     43 H43       -10.8402    3.0236   62.7372 H       1  ZINC000552360217    0.0700
     44 H44       -11.1755    2.6327   64.4410 H       1  ZINC000552360217    0.0700
     45 H45        -9.4981    2.6527   63.8460 H       1  ZINC000552360217    0.0700
     46 H46       -12.1703   -0.4508   62.6079 H       1  ZINC000552360217    0.0600
     47 H47       -12.7361    0.8204   63.7180 H       1  ZINC000552360217    0.0700
     48 H48       -12.4007    1.2113   62.0142 H       1  ZINC000552360217    0.0700
     49 H49        -8.2645   -0.2592   63.8732 H       1  ZINC000552360217    0.0600
     50 H50        -8.5562    1.2880   64.7034 H       1  ZINC000552360217    0.0700
     51 H51        -9.1964    0.0240   66.7653 H       1  ZINC000552360217    0.0600
     52 H52        -8.8023   -1.4964   65.9279 H       1  ZINC000552360217    0.0500
     53 H53        -6.5791   -0.6168   65.6853 H       1  ZINC000552360217    0.3800
     54 H54       -10.7310   -3.1803   55.3003 H       1  ZINC000552360217    0.1500
@<TRIPOS>BOND
     1     1     2    1
     2     1    28    1
     3     1    29    1
     4     1    30    1
     5     2     3    1
     6     2     4   am
     7     3    31    1
     8     3    32    1
     9     3    33    1
    10     4     5    2
    11     4     6    2
    12     4     7    1
    13     7    27   ar
    14     7     8   ar
    15     8     9   ar
    16     8    34    1
    17     9    10   ar
    18     9    35    1
    19    10    11   ar
    20    10    36    1
    21    11    12    1
    22    11    27   ar
    23    12    13    2
    24    12    14   am
    25    14    15    1
    26    14    37    1
    27    15    16    1
    28    15    38    1
    29    15    39    1
    30    16    17    2
    31    16    18   am
    32    18    19    1
    33    18    40    1
    34    19    20    1
    35    19    41    1
    36    19    42    1
    37    20    21    1
    38    20    22    1
    39    20    23    1
    40    21    43    1
    41    21    44    1
    42    21    45    1
    43    22    46    1
    44    22    47    1
    45    22    48    1
    46    23    24    1
    47    24    25    1
    48    24    49    1
    49    24    50    1
    50    25    26    1
    51    25    51    1
    52    25    52    1
    53    26    53    1
    54    27    54    1
@<TRIPOS>SUBSTRUCTURE
     1 ZINC000552360217        1 TEMP              0 ****  ****    0 ROOT


##########                                Name:    ZINC000435005159
##########                DOCK_Rotatable_Bonds:                  12
##########                         Heavy_Atoms:                  30
##########                    Molecular_Weight:             401.508
##########                DOCK_Rotatable_Bonds:                  12
##########                       Formal_Charge:          -0.0399985
##########                     HBond_Acceptors:                   5
##########                        HBond_Donors:                   2
##########                         Heavy_Atoms:                  30
##########                          Grid_Score:          -40.234364
##########                     Grid_vdw_energy:          -40.086761
##########                      Grid_es_energy:           -0.147603
##########           Internal_energy_repulsive:           13.283282

@<TRIPOS>MOLECULE
ZINC000435005159
 57 59 1 0 0
SMALL
USER_CHARGES


@<TRIPOS>ATOM
      1 O1        -14.0177   -1.5204   54.5572 O.2     1  ZINC000435005159   -0.5300
      2 C2        -13.4884   -2.5773   54.2858 C.2     1  ZINC000435005159    0.5200
      3 C3        -13.2577   -2.9566   52.8457 C.3     1  ZINC000435005159   -0.1400
      4 C4        -12.0986   -2.1331   52.2807 C.3     1  ZINC000435005159   -0.1200
      5 C5        -10.8034   -2.5154   52.9998 C.3     1  ZINC000435005159    0.1200
      6 N6         -9.6885   -1.7485   52.4382 N.am    1  ZINC000435005159   -0.7200
      7 C7         -9.3775   -0.5402   52.9478 C.2     1  ZINC000435005159    0.5600
      8 O8        -10.0228   -0.0862   53.8725 O.2     1  ZINC000435005159   -0.5300
      9 C9         -8.2513    0.2329   52.3824 C.ar    1  ZINC000435005159   -0.1900
     10 C10        -8.0212    1.5536   52.7855 C.ar    1  ZINC000435005159   -0.0200
     11 C11        -6.9534    2.2335   52.2261 C.ar    1  ZINC000435005159   -0.1800
     12 C12        -6.1554    1.5928   51.2957 C.ar    1  ZINC000435005159    0.1200
     13 N13        -6.3966    0.3468   50.9342 N.ar    1  ZINC000435005159   -0.4900
     14 C14        -7.3963   -0.3434   51.4419 C.ar    1  ZINC000435005159    0.1400
     15 N15       -13.1013   -3.4102   55.2722 N.am    1  ZINC000435005159   -0.7300
     16 C16       -13.3255   -3.0414   56.6722 C.3     1  ZINC000435005159    0.1900
     17 H17       -13.5448   -1.9756   56.7367 H       1  ZINC000435005159    0.1000
     18 C18       -14.5072   -3.8396   57.2269 C.3     1  ZINC000435005159   -0.1200
     19 C19       -15.5863   -2.8750   57.7226 C.3     1  ZINC000435005159   -0.0800
     20 C20       -15.1504   -2.2614   59.0282 C.ar    1  ZINC000435005159   -0.0800
     21 C21       -14.9846   -0.8926   59.1274 C.ar    1  ZINC000435005159   -0.1200
     22 C22       -14.5849   -0.3298   60.3251 C.ar    1  ZINC000435005159   -0.1200
     23 C23       -14.3512   -1.1358   61.4236 C.ar    1  ZINC000435005159   -0.1200
     24 C24       -14.5178   -2.5044   61.3246 C.ar    1  ZINC000435005159   -0.1200
     25 C25       -14.9218   -3.0669   60.1281 C.ar    1  ZINC000435005159   -0.1200
     26 C26       -12.0892   -3.3495   57.4771 C.ar    1  ZINC000435005159   -0.1000
     27 C27       -11.4879   -2.3565   58.2275 C.ar    1  ZINC000435005159   -0.1100
     28 C28       -10.3539   -2.6390   58.9659 C.ar    1  ZINC000435005159   -0.1200
     29 C29        -9.8215   -3.9147   58.9542 C.ar    1  ZINC000435005159   -0.1200
     30 C30       -10.4234   -4.9079   58.2044 C.ar    1  ZINC000435005159   -0.1200
     31 C31       -11.5599   -4.6265   57.4695 C.ar    1  ZINC000435005159   -0.1000
     32 H32       -13.0139   -4.0173   52.7838 H       1  ZINC000435005159    0.1000
     33 H33       -14.1605   -2.7571   52.2683 H       1  ZINC000435005159    0.1000
     34 H34       -11.9955   -2.3347   51.2145 H       1  ZINC000435005159    0.0800
     35 H35       -12.2988   -1.0724   52.4321 H       1  ZINC000435005159    0.0800
     36 H36       -10.8985   -2.2930   54.0625 H       1  ZINC000435005159    0.0700
     37 H37       -10.6148   -3.5807   52.8668 H       1  ZINC000435005159    0.0700
     38 H38        -9.1743   -2.1103   51.6995 H       1  ZINC000435005159    0.4000
     39 H39        -8.6607    2.0298   53.5140 H       1  ZINC000435005159    0.1500
     40 H40        -6.7456    3.2537   52.5128 H       1  ZINC000435005159    0.1500
     41 H41        -5.3214    2.1209   50.8577 H       1  ZINC000435005159    0.1600
     42 H42        -7.5616   -1.3613   51.1210 H       1  ZINC000435005159    0.1600
     43 H43       -12.6743   -4.2537   55.0552 H       1  ZINC000435005159    0.4000
     44 H44       -14.9190   -4.4726   56.4408 H       1  ZINC000435005159    0.0700
     45 H45       -14.1684   -4.4624   58.0548 H       1  ZINC000435005159    0.0800
     46 H46       -15.7374   -2.0880   56.9838 H       1  ZINC000435005159    0.0700
     47 H47       -16.5195   -3.4186   57.8704 H       1  ZINC000435005159    0.0700
     48 H48       -15.1671   -0.2629   58.2691 H       1  ZINC000435005159    0.1200
     49 H49       -14.4546    0.7395   60.4024 H       1  ZINC000435005159    0.1200
     50 H50       -14.0382   -0.6961   62.3591 H       1  ZINC000435005159    0.1200
     51 H51       -14.3350   -3.1342   62.1827 H       1  ZINC000435005159    0.1200
     52 H52       -15.0520   -4.1362   60.0509 H       1  ZINC000435005159    0.1200
     53 H53       -11.9038   -1.3598   58.2367 H       1  ZINC000435005159    0.1200
     54 H54        -9.8836   -1.8630   59.5515 H       1  ZINC000435005159    0.1200
     55 H55        -8.9352   -4.1352   59.5304 H       1  ZINC000435005159    0.1200
     56 H56       -10.0073   -5.9045   58.1950 H       1  ZINC000435005159    0.1200
     57 H57       -12.0302   -5.4025   56.8838 H       1  ZINC000435005159    0.1200
@<TRIPOS>BOND
     1     1     2    2
     2     2     3    1
     3     2    15   am
     4     3     4    1
     5     3    32    1
     6     3    33    1
     7     4     5    1
     8     4    34    1
     9     4    35    1
    10     5     6    1
    11     5    36    1
    12     5    37    1
    13     6     7   am
    14     6    38    1
    15     7     8    2
    16     7     9    1
    17     9    14   ar
    18     9    10   ar
    19    10    11   ar
    20    10    39    1
    21    11    12   ar
    22    11    40    1
    23    12    13   ar
    24    12    41    1
    25    13    14   ar
    26    14    42    1
    27    15    16    1
    28    15    43    1
    29    16    17    1
    30    16    18    1
    31    16    26    1
    32    18    19    1
    33    18    44    1
    34    18    45    1
    35    19    20    1
    36    19    46    1
    37    19    47    1
    38    20    25   ar
    39    20    21   ar
    40    21    22   ar
    41    21    48    1
    42    22    23   ar
    43    22    49    1
    44    23    24   ar
    45    23    50    1
    46    24    25   ar
    47    24    51    1
    48    25    52    1
    49    26    31   ar
    50    26    27   ar
    51    27    28   ar
    52    27    53    1
    53    28    29   ar
    54    28    54    1
    55    29    30   ar
    56    29    55    1
    57    30    31   ar
    58    30    56    1
    59    31    57    1
@<TRIPOS>SUBSTRUCTURE
     1 ZINC000435005159        1 TEMP              0 ****  ****    0 ROOT


##########                                Name:    ZINC000770850676
##########                DOCK_Rotatable_Bonds:                  13
##########                         Heavy_Atoms:                  30
##########                    Molecular_Weight:             412.486
##########                DOCK_Rotatable_Bonds:                  13
##########                       Formal_Charge:          -0.0299994
##########                     HBond_Acceptors:                   7
##########                        HBond_Donors:                   3
##########                         Heavy_Atoms:                  30
##########                          Grid_Score:          -39.964283
##########                     Grid_vdw_energy:          -39.541882
##########                      Grid_es_energy:           -0.422401
##########           Internal_energy_repulsive:           17.754086

@<TRIPOS>MOLECULE
ZINC000770850676
 58 60 1 0 0
SMALL
USER_CHARGES


@<TRIPOS>ATOM
      1 O1        -10.2876   -4.1470   56.4277 O.2     1  ZINC000770850676   -0.5300
      2 C2        -11.1452   -3.3790   56.8093 C.2     1  ZINC000770850676    0.5100
      3 N3        -10.8965   -2.5508   57.8430 N.am    1  ZINC000770850676   -0.7000
      4 C4         -9.5924   -2.5826   58.5098 C.3     1  ZINC000770850676    0.1600
      5 H5         -8.8579   -3.0435   57.8494 H       1  ZINC000770850676    0.1000
      6 C6         -9.6994   -3.3967   59.8008 C.3     1  ZINC000770850676    0.0600
      7 O7         -9.6080   -4.7895   59.4945 O.3     1  ZINC000770850676   -0.5700
      8 C8         -9.1545   -1.1548   58.8421 C.3     1  ZINC000770850676   -0.1500
      9 C9        -10.2205   -0.4833   59.7102 C.3     1  ZINC000770850676    0.1500
     10 H10       -11.1889   -0.9453   59.5186 H       1  ZINC000770850676    0.1100
     11 O11        -9.8813   -0.6424   61.0892 O.3     1  ZINC000770850676   -0.5400
     12 C12       -10.2891    0.9845   59.3760 C.ar    1  ZINC000770850676   -0.1200
     13 C13        -9.1597    1.6455   58.9301 C.ar    1  ZINC000770850676   -0.1100
     14 C14        -9.2227    2.9919   58.6236 C.ar    1  ZINC000770850676   -0.1200
     15 C15       -10.4150    3.6774   58.7623 C.ar    1  ZINC000770850676   -0.1200
     16 C16       -11.5446    3.0163   59.2073 C.ar    1  ZINC000770850676   -0.1200
     17 C17       -11.4827    1.6689   59.5098 C.ar    1  ZINC000770850676   -0.1100
     18 C18       -12.4867   -3.3462   56.1234 C.3     1  ZINC000770850676    0.1400
     19 H19       -12.7615   -2.3163   55.8959 H       1  ZINC000770850676    0.1000
     20 C20       -13.5567   -3.9863   57.0328 C.3     1  ZINC000770850676   -0.1200
     21 C21       -14.4468   -4.7642   56.0277 C.3     1  ZINC000770850676   -0.1300
     22 C22       -13.3989   -5.2486   54.9946 C.3     1  ZINC000770850676    0.1000
     23 N23       -12.4339   -4.1352   54.8839 N.am    1  ZINC000770850676   -0.5900
     24 C24       -11.6385   -3.8875   53.8245 C.2     1  ZINC000770850676    0.6700
     25 O25       -11.6811   -4.6123   52.8502 O.2     1  ZINC000770850676   -0.5600
     26 O26       -10.7968   -2.8369   53.8457 O.3     1  ZINC000770850676   -0.3600
     27 C27       -10.8451   -1.9307   52.7123 C.3     1  ZINC000770850676    0.1300
     28 C28        -9.7440   -0.9095   52.8384 C.ar    1  ZINC000770850676   -0.1000
     29 C29        -8.5655   -1.0732   52.1347 C.ar    1  ZINC000770850676   -0.0900
     30 C30        -7.5556   -0.1365   52.2504 C.ar    1  ZINC000770850676   -0.1200
     31 C31        -7.7243    0.9642   53.0695 C.ar    1  ZINC000770850676   -0.1100
     32 C32        -8.9031    1.1284   53.7726 C.ar    1  ZINC000770850676   -0.1200
     33 C33        -9.9148    0.1939   53.6535 C.ar    1  ZINC000770850676   -0.0900
     34 H34       -11.5810   -1.9338   58.1458 H       1  ZINC000770850676    0.4000
     35 H35        -8.8884   -3.1186   60.4739 H       1  ZINC000770850676    0.0500
     36 H36       -10.6564   -3.1923   60.2810 H       1  ZINC000770850676    0.0500
     37 H37        -8.7608   -5.0529   59.1099 H       1  ZINC000770850676    0.3800
     38 H38        -8.2089   -1.1815   59.3836 H       1  ZINC000770850676    0.0800
     39 H39        -9.0285   -0.5892   57.9189 H       1  ZINC000770850676    0.0900
     40 H40        -9.0174   -0.2786   61.3263 H       1  ZINC000770850676    0.3700
     41 H41        -8.2282    1.1098   58.8217 H       1  ZINC000770850676    0.1200
     42 H42        -8.3401    3.5083   58.2759 H       1  ZINC000770850676    0.1200
     43 H43       -10.4640    4.7295   58.5235 H       1  ZINC000770850676    0.1200
     44 H44       -12.4760    3.5519   59.3161 H       1  ZINC000770850676    0.1200
     45 H45       -12.3652    1.1524   59.8575 H       1  ZINC000770850676    0.1200
     46 H46       -13.0970   -4.6678   57.7485 H       1  ZINC000770850676    0.0800
     47 H47       -14.1356   -3.2187   57.5465 H       1  ZINC000770850676    0.1000
     48 H48       -14.9370   -5.6086   56.5122 H       1  ZINC000770850676    0.0900
     49 H49       -15.1786   -4.1043   55.5618 H       1  ZINC000770850676    0.0800
     50 H50       -12.9011   -6.1495   55.3531 H       1  ZINC000770850676    0.0700
     51 H51       -13.8738   -5.4343   54.0312 H       1  ZINC000770850676    0.0900
     52 H52       -10.7126   -2.4957   51.7895 H       1  ZINC000770850676    0.0800
     53 H53       -11.8100   -1.4241   52.6928 H       1  ZINC000770850676    0.0800
     54 H54        -8.4338   -1.9331   51.4947 H       1  ZINC000770850676    0.1200
     55 H55        -6.6346   -0.2647   51.7011 H       1  ZINC000770850676    0.1300
     56 H56        -6.9348    1.6957   53.1605 H       1  ZINC000770850676    0.1300
     57 H57        -9.0347    1.9881   54.4129 H       1  ZINC000770850676    0.1300
     58 H58       -10.8357    0.3221   54.2028 H       1  ZINC000770850676    0.1200
@<TRIPOS>BOND
     1     1     2    2
     2     2     3   am
     3     2    18    1
     4     3     4    1
     5     3    34    1
     6     4     5    1
     7     4     6    1
     8     4     8    1
     9     6     7    1
    10     6    35    1
    11     6    36    1
    12     7    37    1
    13     8     9    1
    14     8    38    1
    15     8    39    1
    16     9    10    1
    17     9    11    1
    18     9    12    1
    19    11    40    1
    20    12    17   ar
    21    12    13   ar
    22    13    14   ar
    23    13    41    1
    24    14    15   ar
    25    14    42    1
    26    15    16   ar
    27    15    43    1
    28    16    17   ar
    29    16    44    1
    30    17    45    1
    31    18    19    1
    32    18    23    1
    33    18    20    1
    34    20    21    1
    35    20    46    1
    36    20    47    1
    37    21    22    1
    38    21    48    1
    39    21    49    1
    40    22    23    1
    41    22    50    1
    42    22    51    1
    43    23    24   am
    44    24    25    2
    45    24    26    1
    46    26    27    1
    47    27    28    1
    48    27    52    1
    49    27    53    1
    50    28    33   ar
    51    28    29   ar
    52    29    30   ar
    53    29    54    1
    54    30    31   ar
    55    30    55    1
    56    31    32   ar
    57    31    56    1
    58    32    33   ar
    59    32    57    1
    60    33    58    1
@<TRIPOS>SUBSTRUCTURE
     1 ZINC000770850676        1 TEMP              0 ****  ****    0 ROOT


##########                                Name:     oleObject14.pdb
##########                DOCK_Rotatable_Bonds:                   9
##########                         Heavy_Atoms:                  33
##########                    Molecular_Weight:             484.424
##########                DOCK_Rotatable_Bonds:                   9
##########                       Formal_Charge:         0.000299782
##########                     HBond_Acceptors:                   7
##########                        HBond_Donors:                   1
##########                         Heavy_Atoms:                  33
##########                          Grid_Score:          -39.931576
##########                     Grid_vdw_energy:          -38.955055
##########                      Grid_es_energy:           -0.976519
##########           Internal_energy_repulsive:           11.630788

@<TRIPOS>MOLECULE
oleObject14.pdb
 60 63 1 0 0
SMALL
NO_CHARGES


@<TRIPOS>ATOM
      1 C          -9.9361    1.0289   63.5549 C.ar    1  UNL         0.0422
      2 C          -8.7892    0.2246   63.4645 C.ar    1  UNL        -0.0408
      3 C          -8.7753   -0.8875   62.6060 C.ar    1  UNL        -0.0288
      4 C          -9.9128   -1.2010   61.8315 C.ar    1  UNL         0.0937
      5 C         -11.0602   -0.3874   61.9284 C.ar    1  UNL         0.0723
      6 C         -11.0712    0.7239   62.7878 C.ar    1  UNL        -0.0221
      7 CL        -12.4951   -0.7406   60.9840 Cl      1  UNL        -0.0814
      8 O          -9.9400   -2.2851   60.9754 O.3     1  UNL        -0.3432
      9 C          -8.7921   -2.7504   60.2436 C.3     1  UNL         0.0661
     10 C          -9.2774   -3.8057   59.2282 C.3     1  UNL         0.0222
     11 N         -10.5723   -3.4653   58.5977 N.4     1  UNL        -0.3010
     12 C         -10.5999   -2.1363   57.9432 C.3     1  UNL        -0.0010
     13 C         -12.0052   -1.7892   57.4031 C.3     1  UNL        -0.0289
     14 C         -12.5750   -2.8805   56.4649 C.3     1  UNL         0.0382
     15 C         -12.4493   -4.2735   57.1319 C.3     1  UNL        -0.0289
     16 C         -11.0424   -4.5518   57.7112 C.3     1  UNL        -0.0010
     17 C         -11.9121   -2.8358   55.0659 C.2     1  UNL         0.2156
     18 O         -11.0334   -3.6151   54.7451 O.2     1  UNL        -0.2774
     19 N         -12.3519   -1.9168   54.1219 N.am    1  UNL        -0.3025
     20 C         -11.8486   -1.7253   52.7487 C.3     1  UNL         0.0900
     21 C         -12.7654   -0.8512   51.8950 C.ar    1  UNL        -0.0217
     22 C         -13.8677   -1.4018   51.2105 C.ar    1  UNL        -0.0568
     23 C         -14.6939   -0.5855   50.4208 C.ar    1  UNL        -0.0619
     24 C         -14.4272    0.7883   50.3115 C.ar    1  UNL        -0.0622
     25 C         -13.3350    1.3453   50.9950 C.ar    1  UNL        -0.0619
     26 C         -12.5091    0.5288   51.7846 C.ar    1  UNL        -0.0568
     27 C         -10.4234   -1.1808   52.7413 C.ar    1  UNL         0.0652
     28 C         -10.0188   -0.1509   53.6157 C.ar    1  UNL        -0.0383
     29 C          -8.6953    0.3141   53.5551 C.ar    1  UNL        -0.0588
     30 C          -7.8225   -0.2658   52.6215 C.ar    1  UNL        -0.0438
     31 C          -8.3087   -1.2864   51.7864 C.ar    1  UNL         0.0272
     32 N          -9.5793   -1.7340   51.8431 N.ar    1  UNL        -0.2590
     33 CL         -9.9502    2.4139   64.6256 Cl      1  UNL        -0.0843
     34 H          -7.9109    0.4615   64.0584 H       1  UNL         0.0639
     35 H          -7.8777   -1.4950   62.5517 H       1  UNL         0.0652
     36 H         -11.9583    1.3471   62.8584 H       1  UNL         0.0655
     37 H          -8.0636   -3.1944   60.9326 H       1  UNL         0.0586
     38 H          -8.3206   -1.9175   59.7066 H       1  UNL         0.0586
     39 H          -9.3770   -4.7597   59.7624 H       1  UNL         0.0455
     40 H          -8.5091   -3.9397   58.4555 H       1  UNL         0.0455
     41 H          -9.8784   -2.1164   57.1158 H       1  UNL         0.0431
     42 H         -10.3119   -1.3516   58.6522 H       1  UNL         0.0431
     43 H         -11.9727   -0.8227   56.8869 H       1  UNL         0.0288
     44 H         -12.6850   -1.6654   58.2561 H       1  UNL         0.0288
     45 H         -13.6468   -2.6928   56.3587 H       1  UNL         0.0402
     46 H         -12.7198   -5.0594   56.4152 H       1  UNL         0.0288
     47 H         -13.1758   -4.3355   57.9525 H       1  UNL         0.0288
     48 H         -10.3301   -4.6892   56.8879 H       1  UNL         0.0431
     49 H         -11.0791   -5.4963   58.2695 H       1  UNL         0.0431
     50 H         -13.1724   -1.3842   54.3814 H       1  UNL         0.1504
     51 H         -11.8022   -2.7206   52.2884 H       1  UNL         0.0624
     52 H         -14.0814   -2.4642   51.2812 H       1  UNL         0.0626
     53 H         -15.5392   -1.0181   49.8931 H       1  UNL         0.0623
     54 H         -15.0665    1.4197   49.7010 H       1  UNL         0.0623
     55 H         -13.1294    2.4089   50.9143 H       1  UNL         0.0623
     56 H         -11.6674    0.9701   52.3113 H       1  UNL         0.0626
     57 H         -10.7154    0.2811   54.3277 H       1  UNL         0.0643
     58 H          -8.3546    1.1058   54.2161 H       1  UNL         0.0624
     59 H          -6.7917    0.0674   52.5449 H       1  UNL         0.0639
     60 H          -7.6613   -1.7598   51.0492 H       1  UNL         0.0840
@<TRIPOS>BOND
     1     1     2   ar
     2     1     6   ar
     3     1    33    1
     4     2     3   ar
     5     2    34    1
     6     3     4   ar
     7     3    35    1
     8     4     5   ar
     9     4     8    1
    10     5     6   ar
    11     5     7    1
    12     6    36    1
    13     8     9    1
    14     9    10    1
    15     9    37    1
    16     9    38    1
    17    10    11    1
    18    10    39    1
    19    10    40    1
    20    11    12    1
    21    11    16    1
    22    12    13    1
    23    12    41    1
    24    12    42    1
    25    13    14    1
    26    13    43    1
    27    13    44    1
    28    14    15    1
    29    14    17    1
    30    14    45    1
    31    15    16    1
    32    15    46    1
    33    15    47    1
    34    16    48    1
    35    16    49    1
    36    17    18    2
    37    17    19   am
    38    19    20    1
    39    19    50    1
    40    20    21    1
    41    20    27    1
    42    20    51    1
    43    21    22   ar
    44    21    26   ar
    45    22    23   ar
    46    22    52    1
    47    23    24   ar
    48    23    53    1
    49    24    25   ar
    50    24    54    1
    51    25    26   ar
    52    25    55    1
    53    26    56    1
    54    27    28   ar
    55    27    32   ar
    56    28    29   ar
    57    28    57    1
    58    29    30   ar
    59    29    58    1
    60    30    31   ar
    61    30    59    1
    62    31    32   ar
    63    31    60    1
@<TRIPOS>SUBSTRUCTURE
     1 UNL         1 TEMP              0 ****  ****    0 ROOT


##########                                Name:    ZINC000816269301
##########                DOCK_Rotatable_Bonds:                   7
##########                         Heavy_Atoms:                  25
##########                    Molecular_Weight:             358.784
##########                DOCK_Rotatable_Bonds:                   7
##########                       Formal_Charge:           0.0100002
##########                     HBond_Acceptors:                   8
##########                        HBond_Donors:                   1
##########                         Heavy_Atoms:                  25
##########                          Grid_Score:          -39.904655
##########                     Grid_vdw_energy:          -40.597084
##########                      Grid_es_energy:            0.692430
##########           Internal_energy_repulsive:            6.367671

@<TRIPOS>MOLECULE
ZINC000816269301
 40 42 1 0 0
SMALL
USER_CHARGES


@<TRIPOS>ATOM
      1 C1         -9.4535   -1.4610   61.0222 C.3     1  ZINC000816269301    0.1000
      2 N2         -9.4874   -2.6458   60.1611 N.pl3   1  ZINC000816269301   -0.4000
      3 N3         -8.4860   -3.6194   60.0370 N.2     1  ZINC000816269301    0.0000
      4 N4         -8.8584   -4.5136   59.1905 N.2     1  ZINC000816269301   -0.2000
      5 C5        -10.0874   -4.2141   58.7066 C.ar    1  ZINC000816269301   -0.0300
      6 C6        -10.9282   -4.8420   57.7838 C.ar    1  ZINC000816269301    0.0500
      7 C7        -12.1624   -4.2769   57.4857 C.ar    1  ZINC000816269301   -0.1400
      8 C8        -13.0561   -4.9344   56.5125 C.2     1  ZINC000816269301    0.5200
      9 O9        -13.8952   -5.7249   56.8959 O.2     1  ZINC000816269301   -0.5000
     10 O10       -12.9416   -4.6579   55.1989 O.3     1  ZINC000816269301   -0.3500
     11 C11       -11.8866   -3.7401   54.8079 C.3     1  ZINC000816269301    0.0500
     12 C12       -11.8355   -3.6420   53.2819 C.3     1  ZINC000816269301    0.1200
     13 N13       -10.6476   -2.8843   52.8808 N.am    1  ZINC000816269301   -0.7200
     14 C14       -10.6629   -1.5371   52.9190 C.2     1  ZINC000816269301    0.5600
     15 O15       -11.6620   -0.9509   53.2878 O.2     1  ZINC000816269301   -0.5300
     16 C16        -9.4653   -0.7727   52.5127 C.ar    1  ZINC000816269301   -0.1300
     17 C17        -8.3574   -1.4359   51.9817 C.ar    1  ZINC000816269301   -0.0700
     18 C18        -7.2426   -0.7173   51.6043 C.ar    1  ZINC000816269301   -0.1200
     19 C19        -7.2206    0.6599   51.7512 C.ar    1  ZINC000816269301   -0.0100
     20 Cl20       -5.8138    1.5579   51.2734 Cl      1  ZINC000816269301   -0.0600
     21 C21        -8.3167    1.3234   52.2775 C.ar    1  ZINC000816269301   -0.1200
     22 C22        -9.4393    0.6162   52.6530 C.ar    1  ZINC000816269301   -0.0500
     23 C23       -12.5622   -3.0843   58.1065 C.ar    1  ZINC000816269301   -0.0200
     24 C24       -11.7464   -2.4674   59.0072 C.ar    1  ZINC000816269301   -0.1300
     25 C25       -10.5082   -3.0212   59.3238 C.ar    1  ZINC000816269301    0.1100
     26 H26        -9.8710   -1.7090   61.9980 H       1  ZINC000816269301    0.0900
     27 H27        -8.4224   -1.1284   61.1421 H       1  ZINC000816269301    0.1000
     28 H28       -10.0417   -0.6641   60.5671 H       1  ZINC000816269301    0.1000
     29 H29       -10.6208   -5.7602   57.3052 H       1  ZINC000816269301    0.1600
     30 H30       -12.0875   -2.7550   55.2289 H       1  ZINC000816269301    0.0800
     31 H31       -10.9299   -4.1063   55.1807 H       1  ZINC000816269301    0.1000
     32 H32       -11.7889   -4.6437   52.8547 H       1  ZINC000816269301    0.1000
     33 H33       -12.7296   -3.1342   52.9204 H       1  ZINC000816269301    0.0900
     34 H34        -9.8500   -3.3521   52.5877 H       1  ZINC000816269301    0.4000
     35 H35        -8.3732   -2.5097   51.8670 H       1  ZINC000816269301    0.1400
     36 H36        -6.3848   -1.2292   51.1938 H       1  ZINC000816269301    0.1400
     37 H37        -8.2937    2.3973   52.3897 H       1  ZINC000816269301    0.1400
     38 H38       -10.2935    1.1346   53.0628 H       1  ZINC000816269301    0.1500
     39 H39       -13.5228   -2.6517   57.8687 H       1  ZINC000816269301    0.1500
     40 H40       -12.0628   -1.5494   59.4801 H       1  ZINC000816269301    0.1400
@<TRIPOS>BOND
     1     1     2    1
     2     1    26    1
     3     1    27    1
     4     1    28    1
     5     2    25    1
     6     2     3    1
     7     3     4    2
     8     4     5    1
     9     5    25   ar
    10     5     6   ar
    11     6     7   ar
    12     6    29    1
    13     7     8    1
    14     7    23   ar
    15     8     9    2
    16     8    10    1
    17    10    11    1
    18    11    12    1
    19    11    30    1
    20    11    31    1
    21    12    13    1
    22    12    32    1
    23    12    33    1
    24    13    14   am
    25    13    34    1
    26    14    15    2
    27    14    16    1
    28    16    22   ar
    29    16    17   ar
    30    17    18   ar
    31    17    35    1
    32    18    19   ar
    33    18    36    1
    34    19    20    1
    35    19    21   ar
    36    21    22   ar
    37    21    37    1
    38    22    38    1
    39    23    24   ar
    40    23    39    1
    41    24    25   ar
    42    24    40    1
@<TRIPOS>SUBSTRUCTURE
     1 ZINC000816269301        1 TEMP              0 ****  ****    0 ROOT


##########                                Name:    ZINC000621594459
##########                DOCK_Rotatable_Bonds:                  10
##########                         Heavy_Atoms:                  25
##########                    Molecular_Weight:             389.497
##########                DOCK_Rotatable_Bonds:                  10
##########                       Formal_Charge:         -7.7486e-07
##########                     HBond_Acceptors:                  10
##########                        HBond_Donors:                   3
##########                         Heavy_Atoms:                  25
##########                          Grid_Score:          -39.799164
##########                     Grid_vdw_energy:          -35.029892
##########                      Grid_es_energy:           -4.769272
##########           Internal_energy_repulsive:           11.192870

@<TRIPOS>MOLECULE
ZINC000621594459
 48 49 1 0 0
SMALL
USER_CHARGES


@<TRIPOS>ATOM
      1 C1        -11.2820   -4.2705   57.4369 C.3     1  ZINC000621594459   -0.1600
      2 C2        -11.2185   -2.8265   57.9389 C.3     1  ZINC000621594459    0.1300
      3 C3        -12.5017   -2.0926   57.5448 C.3     1  ZINC000621594459   -0.1800
      4 N4        -11.0817   -2.8222   59.3975 N.am    1  ZINC000621594459   -1.1100
      5 S5         -9.5767   -2.8362   60.0881 S.o2    1  ZINC000621594459    2.6200
      6 O6         -9.8300   -2.7336   61.4826 O.2     1  ZINC000621594459   -0.9500
      7 O7         -8.9504   -3.9880   59.5401 O.2     1  ZINC000621594459   -0.9400
      8 C8         -8.7823   -1.3261   59.4726 C.3     1  ZINC000621594459   -0.6600
      9 C9         -9.6622   -0.1176   59.7988 C.3     1  ZINC000621594459    0.1300
     10 N10        -9.7333    0.0568   61.2516 N.am    1  ZINC000621594459   -0.7200
     11 C11       -10.5221    1.0147   61.7775 C.2     1  ZINC000621594459    0.5600
     12 O12       -11.1757    1.7329   61.0465 O.2     1  ZINC000621594459   -0.5200
     13 C13       -10.5926    1.1918   63.2437 C.ar    1  ZINC000621594459   -0.1500
     14 C14       -11.7077    1.7985   63.8234 C.ar    1  ZINC000621594459   -0.0300
     15 C15       -11.7674    1.9604   65.1924 C.ar    1  ZINC000621594459   -0.1400
     16 C16       -10.7248    1.5232   65.9898 C.ar    1  ZINC000621594459    0.0100
     17 C17        -9.6161    0.9214   65.4212 C.ar    1  ZINC000621594459   -0.6800
     18 S18        -8.2934    0.3689   66.4458 S.o2    1  ZINC000621594459    2.7000
     19 O19        -8.3301    1.1730   67.6169 O.2     1  ZINC000621594459   -0.9400
     20 O20        -8.3733   -1.0496   66.4741 O.2     1  ZINC000621594459   -0.9500
     21 N21        -6.8807    0.7422   65.6664 N.am    1  ZINC000621594459   -1.0900
     22 C22        -6.5678    2.1369   65.3453 C.3     1  ZINC000621594459    0.0800
     23 C23        -5.4873    2.8284   66.1791 C.3     1  ZINC000621594459   -0.1800
     24 C24        -5.1976    2.4299   64.7307 C.3     1  ZINC000621594459   -0.1900
     25 C25        -9.5466    0.7480   64.0545 C.ar    1  ZINC000621594459    0.0400
     26 H26       -11.3838   -4.2737   56.3516 H       1  ZINC000621594459    0.0700
     27 H27       -10.3679   -4.7933   57.7177 H       1  ZINC000621594459    0.0700
     28 H28       -12.1399   -4.7730   57.8837 H       1  ZINC000621594459    0.0600
     29 H29       -10.3606   -2.3240   57.4921 H       1  ZINC000621594459    0.0900
     30 H30       -13.3596   -2.5951   57.9916 H       1  ZINC000621594459    0.0700
     31 H31       -12.4565   -1.0639   57.9026 H       1  ZINC000621594459    0.0600
     32 H32       -12.6035   -2.0958   56.4596 H       1  ZINC000621594459    0.0700
     33 H33       -11.8729   -2.8113   59.9588 H       1  ZINC000621594459    0.4200
     34 H34        -7.8097   -1.2067   59.9499 H       1  ZINC000621594459    0.1400
     35 H35        -8.6508   -1.3988   58.3930 H       1  ZINC000621594459    0.1400
     36 H36        -9.2337    0.7766   59.3461 H       1  ZINC000621594459    0.0900
     37 H37       -10.6646   -0.2806   59.4028 H       1  ZINC000621594459    0.0900
     38 H38        -9.2127   -0.5172   61.8350 H       1  ZINC000621594459    0.4000
     39 H39       -12.5220    2.1407   63.2020 H       1  ZINC000621594459    0.1300
     40 H40       -12.6298    2.4296   65.6424 H       1  ZINC000621594459    0.1400
     41 H41       -10.7764    1.6527   67.0607 H       1  ZINC000621594459    0.1500
     42 H42        -6.2605    0.0374   65.4225 H       1  ZINC000621594459    0.4200
     43 H43        -7.4097    2.7424   65.0099 H       1  ZINC000621594459    0.1400
     44 H44        -5.6184    3.8893   66.3927 H       1  ZINC000621594459    0.1100
     45 H45        -5.0094    2.2458   66.9666 H       1  ZINC000621594459    0.1000
     46 H46        -4.5291    1.5849   64.5652 H       1  ZINC000621594459    0.1000
     47 H47        -5.1381    3.2284   63.9912 H       1  ZINC000621594459    0.1000
     48 H48        -8.6809    0.2778   63.6120 H       1  ZINC000621594459    0.1600
@<TRIPOS>BOND
     1     1     2    1
     2     1    26    1
     3     1    27    1
     4     1    28    1
     5     2     3    1
     6     2     4    1
     7     2    29    1
     8     3    30    1
     9     3    31    1
    10     3    32    1
    11     4     5   am
    12     4    33    1
    13     5     6    2
    14     5     7    2
    15     5     8    1
    16     8     9    1
    17     8    34    1
    18     8    35    1
    19     9    10    1
    20     9    36    1
    21     9    37    1
    22    10    11   am
    23    10    38    1
    24    11    12    2
    25    11    13    1
    26    13    25   ar
    27    13    14   ar
    28    14    15   ar
    29    14    39    1
    30    15    16   ar
    31    15    40    1
    32    16    17   ar
    33    16    41    1
    34    17    18    1
    35    17    25   ar
    36    18    19    2
    37    18    20    2
    38    18    21   am
    39    21    22    1
    40    21    42    1
    41    22    24    1
    42    22    23    1
    43    22    43    1
    44    23    24    1
    45    23    44    1
    46    23    45    1
    47    24    46    1
    48    24    47    1
    49    25    48    1
@<TRIPOS>SUBSTRUCTURE
     1 ZINC000621594459        1 TEMP              0 ****  ****    0 ROOT


##########                                Name:    ZINC001574157642
##########                DOCK_Rotatable_Bonds:                   9
##########                         Heavy_Atoms:                  28
##########                    Molecular_Weight:             387.445
##########                DOCK_Rotatable_Bonds:                   9
##########                       Formal_Charge:          -0.0400004
##########                     HBond_Acceptors:                  11
##########                        HBond_Donors:                   4
##########                         Heavy_Atoms:                  28
##########                          Grid_Score:          -39.701935
##########                     Grid_vdw_energy:          -35.438892
##########                      Grid_es_energy:           -4.263042
##########           Internal_energy_repulsive:           13.915810

@<TRIPOS>MOLECULE
ZINC001574157642
 53 55 1 0 0
SMALL
USER_CHARGES


@<TRIPOS>ATOM
      1 C1         -9.1754    1.4170   66.5522 C.3     1  ZINC001574157642   -0.1400
      2 C2         -8.5351    1.4437   65.1628 C.3     1  ZINC001574157642   -0.0900
      3 C3         -7.0241    1.6398   65.3012 C.3     1  ZINC001574157642   -0.1500
      4 C4         -8.8143    0.1207   64.4470 C.3     1  ZINC001574157642   -0.1300
      5 C5         -9.7059    0.3773   63.2302 C.3     1  ZINC001574157642    0.1300
      6 H6         -9.3893    1.2951   62.7350 H       1  ZINC001574157642    0.1100
      7 C7        -11.1602    0.5181   63.6842 C.3     1  ZINC001574157642    0.1100
      8 N8        -11.9200    1.2510   62.6685 N.pl3   1  ZINC001574157642   -0.7100
      9 C9        -12.9145    0.6054   61.9445 C.ar    1  ZINC001574157642    0.3700
     10 C10       -13.5459    1.2620   60.8896 C.ar    1  ZINC001574157642    0.0000
     11 N11       -14.4899    0.6501   60.2024 N.ar    1  ZINC001574157642   -0.3700
     12 C12       -14.8399   -0.5943   60.5156 C.ar    1  ZINC001574157642    0.0800
     13 C13       -15.9022   -1.2836   59.7420 C.2     1  ZINC001574157642    0.2300
     14 N14       -16.2790   -2.5407   59.8689 N.2     1  ZINC001574157642   -0.2700
     15 N15       -17.2261   -2.7557   59.0218 N.pl3   1  ZINC001574157642   -0.2300
     16 N16       -17.4612   -1.6754   58.3623 N.2     1  ZINC001574157642   -0.0400
     17 N17       -16.6696   -0.7476   58.7822 N.2     1  ZINC001574157642   -0.2600
     18 C18       -14.2084   -1.2505   61.5697 C.ar    1  ZINC001574157642    0.1600
     19 N19       -13.2594   -0.6385   62.2543 N.ar    1  ZINC001574157642   -0.5000
     20 N20        -9.5924   -0.7457   62.2963 N.am    1  ZINC001574157642   -0.7300
     21 C21        -9.6422   -0.5248   60.9677 C.2     1  ZINC001574157642    0.5200
     22 O22        -9.7824    0.6033   60.5453 O.2     1  ZINC001574157642   -0.5100
     23 C23        -9.5238   -1.6798   60.0069 C.3     1  ZINC001574157642   -0.1300
     24 H24        -8.7418   -1.4697   59.2772 H       1  ZINC001574157642    0.1100
     25 C25       -10.8601   -1.8867   59.2838 C.3     1  ZINC001574157642   -0.1000
     26 C26       -10.6606   -2.9388   58.1901 C.3     1  ZINC001574157642   -0.1400
     27 C27        -9.9563   -4.1379   58.7569 C.2     1  ZINC001574157642    0.5200
     28 O28       -10.0035   -5.1783   58.1353 O.2     1  ZINC001574157642   -0.5500
     29 N29        -9.2813   -4.1199   59.9068 N.am    1  ZINC001574157642   -0.7200
     30 C30        -9.1774   -2.9546   60.7772 C.3     1  ZINC001574157642    0.1200
     31 H31        -8.7539    0.5949   67.1307 H       1  ZINC001574157642    0.0400
     32 H32        -8.9765    2.3596   67.0621 H       1  ZINC001574157642    0.0500
     33 H33       -10.2519    1.2774   66.4536 H       1  ZINC001574157642    0.0700
     34 H34        -8.9567    2.2658   64.5843 H       1  ZINC001574157642    0.0700
     35 H35        -6.6026    0.8177   65.8797 H       1  ZINC001574157642    0.0500
     36 H36        -6.5680    1.6589   64.3114 H       1  ZINC001574157642    0.0500
     37 H37        -6.8252    2.5823   65.8112 H       1  ZINC001574157642    0.0500
     38 H38        -7.8730   -0.3217   64.1209 H       1  ZINC001574157642    0.0700
     39 H39        -9.3195   -0.5624   65.1299 H       1  ZINC001574157642    0.0800
     40 H40       -11.5959   -0.4718   63.8200 H       1  ZINC001574157642    0.0800
     41 H41       -11.1951    1.0630   64.6277 H       1  ZINC001574157642    0.0900
     42 H42       -11.7287    2.1873   62.5015 H       1  ZINC001574157642    0.4100
     43 H43       -13.2617    2.2724   60.6352 H       1  ZINC001574157642    0.1700
     44 H44       -17.6888   -3.5995   58.8998 H       1  ZINC001574157642    0.4800
     45 H45       -14.4925   -2.2608   61.8246 H       1  ZINC001574157642    0.1800
     46 H46        -9.4815   -1.6482   62.6341 H       1  ZINC001574157642    0.4000
     47 H47       -11.6115   -2.2331   59.9935 H       1  ZINC001574157642    0.0800
     48 H48       -11.1838   -0.9476   58.8351 H       1  ZINC001574157642    0.0900
     49 H49       -11.6313   -3.2412   57.7971 H       1  ZINC001574157642    0.1100
     50 H50       -10.0614   -2.5143   57.3844 H       1  ZINC001574157642    0.1000
     51 H51        -8.8286   -4.9328   60.1810 H       1  ZINC001574157642    0.4000
     52 H52        -8.1605   -2.8828   61.1632 H       1  ZINC001574157642    0.0800
     53 H53        -9.8693   -3.0657   61.6120 H       1  ZINC001574157642    0.0700
@<TRIPOS>BOND
     1     1     2    1
     2     1    31    1
     3     1    32    1
     4     1    33    1
     5     2     3    1
     6     2     4    1
     7     2    34    1
     8     3    35    1
     9     3    36    1
    10     3    37    1
    11     4     5    1
    12     4    38    1
    13     4    39    1
    14     5     6    1
    15     5     7    1
    16     5    20    1
    17     7     8    1
    18     7    40    1
    19     7    41    1
    20     8     9    1
    21     8    42    1
    22     9    19   ar
    23     9    10   ar
    24    10    11   ar
    25    10    43    1
    26    11    12   ar
    27    12    13    1
    28    12    18   ar
    29    13    17    1
    30    13    14    2
    31    14    15    1
    32    15    16    1
    33    15    44    1
    34    16    17    2
    35    18    19   ar
    36    18    45    1
    37    20    21   am
    38    20    46    1
    39    21    22    2
    40    21    23    1
    41    23    24    1
    42    23    30    1
    43    23    25    1
    44    25    26    1
    45    25    47    1
    46    25    48    1
    47    26    27    1
    48    26    49    1
    49    26    50    1
    50    27    28    2
    51    27    29   am
    52    29    30    1
    53    29    51    1
    54    30    52    1
    55    30    53    1
@<TRIPOS>SUBSTRUCTURE
     1 ZINC001574157642        1 TEMP              0 ****  ****    0 ROOT


##########                                Name:    ZINC000464139057
##########                DOCK_Rotatable_Bonds:                   9
##########                         Heavy_Atoms:                  30
##########                    Molecular_Weight:              413.56
##########                DOCK_Rotatable_Bonds:                   9
##########                       Formal_Charge:         2.38419e-07
##########                     HBond_Acceptors:                   6
##########                        HBond_Donors:                   2
##########                         Heavy_Atoms:                  30
##########                          Grid_Score:          -39.565636
##########                     Grid_vdw_energy:          -39.240086
##########                      Grid_es_energy:           -0.325551
##########           Internal_energy_repulsive:           12.703111

@<TRIPOS>MOLECULE
ZINC000464139057
 65 67 1 0 0
SMALL
USER_CHARGES


@<TRIPOS>ATOM
      1 C1        -14.2402   -2.9819   54.6838 C.3     1  ZINC000464139057   -0.1800
      2 C2        -13.3863   -4.2513   54.6726 C.3     1  ZINC000464139057    0.0700
      3 H3        -14.0340   -5.1264   54.7273 H       1  ZINC000464139057    0.1200
      4 C4        -12.5634   -4.3035   53.3802 C.3     1  ZINC000464139057    0.0800
      5 N5        -11.5701   -3.2184   53.4184 N.am    1  ZINC000464139057   -0.6100
      6 C6        -11.4350   -2.3650   52.3841 C.2     1  ZINC000464139057    0.5600
      7 O7        -12.1393   -2.4851   51.4009 O.2     1  ZINC000464139057   -0.5300
      8 C8        -10.4298   -1.2824   52.4455 C.ar    1  ZINC000464139057   -0.1200
      9 C9        -10.8241    0.0246   52.7362 C.ar    1  ZINC000464139057   -0.0900
     10 C10        -9.8811    1.0300   52.7924 C.ar    1  ZINC000464139057   -0.1000
     11 C11        -8.5471    0.7450   52.5610 C.ar    1  ZINC000464139057   -0.0900
     12 C12        -7.5226    1.8485   52.6236 C.3     1  ZINC000464139057    0.1800
     13 N13        -6.5868    1.7100   51.5051 N.am    1  ZINC000464139057   -0.7400
     14 C14        -5.7985    2.7453   51.1540 C.2     1  ZINC000464139057    0.7000
     15 O15        -5.8628    3.7935   51.7665 O.2     1  ZINC000464139057   -0.5900
     16 N16        -4.9387    2.6185   50.1238 N.am    1  ZINC000464139057   -0.7500
     17 C17        -4.0830    3.7443   49.7411 C.3     1  ZINC000464139057    0.1400
     18 C18        -2.6331    3.2684   49.6305 C.3     1  ZINC000464139057   -0.0900
     19 C19        -2.4609    2.4728   48.3623 C.2     1  ZINC000464139057   -0.1200
     20 C20        -2.7101    3.0241   47.2170 C.2     1  ZINC000464139057   -0.1500
     21 C21        -2.5411    2.2364   45.9356 C.3     1  ZINC000464139057   -0.0900
     22 C22        -1.0458    2.0407   45.6759 C.3     1  ZINC000464139057   -0.1100
     23 C23        -0.5275    0.8177   46.4114 C.3     1  ZINC000464139057   -0.1200
     24 C24        -0.5560    0.9589   47.9231 C.3     1  ZINC000464139057   -0.1100
     25 C25        -1.9914    1.0354   48.4333 C.3     1  ZINC000464139057   -0.0800
     26 C26        -8.1495   -0.5485   52.2728 C.ar    1  ZINC000464139057   -0.1000
     27 C27        -9.0816   -1.5640   52.2188 C.ar    1  ZINC000464139057   -0.0700
     28 C28       -10.7290   -3.0927   54.6193 C.3     1  ZINC000464139057    0.0700
     29 C29       -11.6413   -3.0995   55.8512 C.3     1  ZINC000464139057    0.0700
     30 H30       -12.2433   -2.1910   55.8635 H       1  ZINC000464139057    0.0700
     31 C31       -10.7872   -3.1639   57.1191 C.3     1  ZINC000464139057   -0.1500
     32 O32       -12.5012   -4.2414   55.7952 O.3     1  ZINC000464139057   -0.3700
     33 H33       -13.5919   -2.1073   54.6290 H       1  ZINC000464139057    0.0600
     34 H34       -14.9136   -2.9893   53.8267 H       1  ZINC000464139057    0.0700
     35 H35       -14.8236   -2.9446   55.6038 H       1  ZINC000464139057    0.0700
     36 H36       -12.0546   -5.2647   53.3075 H       1  ZINC000464139057    0.0800
     37 H37       -13.2205   -4.1695   52.5209 H       1  ZINC000464139057    0.1000
     38 H38       -11.8652    0.2483   52.9163 H       1  ZINC000464139057    0.1300
     39 H39       -10.1849    2.0417   53.0172 H       1  ZINC000464139057    0.1300
     40 H40        -8.0243    2.8141   52.5603 H       1  ZINC000464139057    0.0800
     41 H41        -6.9762    1.7840   53.5646 H       1  ZINC000464139057    0.0800
     42 H42        -6.5345    0.8734   51.0171 H       1  ZINC000464139057    0.4000
     43 H43        -4.8865    1.7817   49.6359 H       1  ZINC000464139057    0.4000
     44 H44        -4.4102    4.1388   48.7791 H       1  ZINC000464139057    0.0700
     45 H45        -4.1519    4.5265   50.4970 H       1  ZINC000464139057    0.0700
     46 H46        -1.9679    4.1317   49.6110 H       1  ZINC000464139057    0.0700
     47 H47        -2.3900    2.6416   50.4884 H       1  ZINC000464139057    0.0800
     48 H48        -3.0406    4.0516   47.1762 H       1  ZINC000464139057    0.1100
     49 H49        -3.0251    1.2650   46.0368 H       1  ZINC000464139057    0.0700
     50 H50        -2.9877    2.7857   45.1068 H       1  ZINC000464139057    0.0700
     51 H51        -0.8812    1.9125   44.6060 H       1  ZINC000464139057    0.0600
     52 H52        -0.5038    2.9221   46.0186 H       1  ZINC000464139057    0.0600
     53 H53        -1.1357   -0.0421   46.1302 H       1  ZINC000464139057    0.0600
     54 H54         0.4998    0.6317   46.0980 H       1  ZINC000464139057    0.0600
     55 H55        -0.0599    0.0990   48.3732 H       1  ZINC000464139057    0.0600
     56 H56        -0.0263    1.8678   48.2086 H       1  ZINC000464139057    0.0600
     57 H57        -2.0317    0.6886   49.4659 H       1  ZINC000464139057    0.0700
     58 H58        -2.6347    0.4137   47.8106 H       1  ZINC000464139057    0.0700
     59 H59        -7.1066   -0.7642   52.0935 H       1  ZINC000464139057    0.1300
     60 H60        -8.7700   -2.5733   51.9940 H       1  ZINC000464139057    0.1300
     61 H61       -10.0355   -3.9320   54.6713 H       1  ZINC000464139057    0.0800
     62 H62       -10.1714   -2.1569   54.5805 H       1  ZINC000464139057    0.1000
     63 H63       -10.1300   -2.2953   57.1590 H       1  ZINC000464139057    0.0800
     64 H64       -11.4364   -3.1688   57.9946 H       1  ZINC000464139057    0.0700
     65 H65       -10.1868   -4.0735   57.1070 H       1  ZINC000464139057    0.0700
@<TRIPOS>BOND
     1     1     2    1
     2     1    33    1
     3     1    34    1
     4     1    35    1
     5     2     3    1
     6     2    32    1
     7     2     4    1
     8     4     5    1
     9     4    36    1
    10     4    37    1
    11     5     6   am
    12     5    28    1
    13     6     7    2
    14     6     8    1
    15     8    27   ar
    16     8     9   ar
    17     9    10   ar
    18     9    38    1
    19    10    11   ar
    20    10    39    1
    21    11    12    1
    22    11    26   ar
    23    12    13    1
    24    12    40    1
    25    12    41    1
    26    13    14   am
    27    13    42    1
    28    14    15    2
    29    14    16   am
    30    16    17    1
    31    16    43    1
    32    17    18    1
    33    17    44    1
    34    17    45    1
    35    18    19    1
    36    18    46    1
    37    18    47    1
    38    19    25    1
    39    19    20    2
    40    20    21    1
    41    20    48    1
    42    21    22    1
    43    21    49    1
    44    21    50    1
    45    22    23    1
    46    22    51    1
    47    22    52    1
    48    23    24    1
    49    23    53    1
    50    23    54    1
    51    24    25    1
    52    24    55    1
    53    24    56    1
    54    25    57    1
    55    25    58    1
    56    26    27   ar
    57    26    59    1
    58    27    60    1
    59    28    29    1
    60    28    61    1
    61    28    62    1
    62    29    30    1
    63    29    31    1
    64    29    32    1
    65    31    63    1
    66    31    64    1
    67    31    65    1
@<TRIPOS>SUBSTRUCTURE
     1 ZINC000464139057        1 TEMP              0 ****  ****    0 ROOT


##########                                Name:    ZINC001039825450
##########                DOCK_Rotatable_Bonds:                   8
##########                         Heavy_Atoms:                  24
##########                    Molecular_Weight:             337.339
##########                DOCK_Rotatable_Bonds:                   8
##########                       Formal_Charge:           0.0100001
##########                     HBond_Acceptors:                  11
##########                        HBond_Donors:                   4
##########                         Heavy_Atoms:                  24
##########                          Grid_Score:          -39.525124
##########                     Grid_vdw_energy:          -36.711323
##########                      Grid_es_energy:           -2.813801
##########           Internal_energy_repulsive:            9.731871

@<TRIPOS>MOLECULE
ZINC001039825450
 43 45 1 0 0
SMALL
USER_CHARGES


@<TRIPOS>ATOM
      1 O1        -10.8470    0.0828   63.2164 O.2     1  ZINC001039825450   -0.5100
      2 C2         -9.6561   -0.0814   63.0554 C.2     1  ZINC001039825450    0.5000
      3 C3         -8.6975    0.1992   64.1838 C.3     1  ZINC001039825450    0.1300
      4 N4         -9.2288    1.2792   65.0189 N.pl3   1  ZINC001039825450   -0.1500
      5 N5         -9.9840    2.2287   64.5921 N.2     1  ZINC001039825450   -0.2800
      6 C6        -10.2756    3.0205   65.5992 C.2     1  ZINC001039825450   -0.0200
      7 C7         -9.6286    2.4783   66.7120 C.2     1  ZINC001039825450   -0.0200
      8 N8         -9.0081    1.4040   66.2796 N.2     1  ZINC001039825450   -0.2800
      9 N9         -9.1906   -0.5200   61.8690 N.am    1  ZINC001039825450   -0.7300
     10 C10       -10.1226   -0.7927   60.7721 C.3     1  ZINC001039825450    0.1000
     11 C11        -9.4834   -1.7798   59.7934 C.3     1  ZINC001039825450    0.1100
     12 O12        -8.3322   -1.2017   59.1747 O.3     1  ZINC001039825450   -0.5400
     13 C13        -9.1180   -3.1059   60.5113 C.3     1  ZINC001039825450   -0.1600
     14 C14        -9.1616   -4.1168   59.3382 C.3     1  ZINC001039825450    0.1000
     15 N15       -10.2835   -3.6672   58.4941 N.am    1  ZINC001039825450   -0.6100
     16 C16       -10.9893   -4.4426   57.6474 C.2     1  ZINC001039825450    0.5200
     17 O17       -10.7186   -5.6194   57.5341 O.2     1  ZINC001039825450   -0.5100
     18 C18       -12.1150   -3.8474   56.8414 C.3     1  ZINC001039825450    0.1100
     19 H19       -12.3123   -2.8237   57.1593 H       1  ZINC001039825450    0.1200
     20 C20       -13.3866   -4.7084   56.9702 C.3     1  ZINC001039825450    0.1100
     21 N21       -13.6553   -5.1484   55.5930 N.am    1  ZINC001039825450   -0.7400
     22 C22       -12.7175   -4.6456   54.7795 C.2     1  ZINC001039825450    0.7100
     23 O23       -12.6987   -4.8525   53.5816 O.2     1  ZINC001039825450   -0.5800
     24 N24       -11.8007   -3.8904   55.4055 N.am    1  ZINC001039825450   -0.7200
     25 C25       -10.5053   -2.2329   58.7294 C.3     1  ZINC001039825450    0.1200
     26 H26        -8.5740   -0.6998   64.7877 H       1  ZINC001039825450    0.1400
     27 H27        -7.7322    0.4975   63.7748 H       1  ZINC001039825450    0.1400
     28 H28       -10.8893    3.9087   65.5720 H       1  ZINC001039825450    0.2000
     29 H29        -9.6398    2.8612   67.7218 H       1  ZINC001039825450    0.2000
     30 H30        -8.2386   -0.6550   61.7415 H       1  ZINC001039825450    0.4000
     31 H31       -11.0405   -1.2220   61.1735 H       1  ZINC001039825450    0.0900
     32 H32       -10.3534    0.1368   60.2518 H       1  ZINC001039825450    0.0900
     33 H33        -7.4959   -1.6039   59.4468 H       1  ZINC001039825450    0.3800
     34 H34        -8.1193   -3.0532   60.9446 H       1  ZINC001039825450    0.0900
     35 H35        -9.8589   -3.3561   61.2704 H       1  ZINC001039825450    0.0900
     36 H36        -8.2281   -4.0864   58.7763 H       1  ZINC001039825450    0.0800
     37 H37        -9.3478   -5.1236   59.7119 H       1  ZINC001039825450    0.0800
     38 H38       -13.2038   -5.5663   57.6173 H       1  ZINC001039825450    0.0900
     39 H39       -14.2159   -4.1115   57.3498 H       1  ZINC001039825450    0.1000
     40 H40       -14.3942   -5.7131   55.3175 H       1  ZINC001039825450    0.4400
     41 H41       -11.0511   -3.4471   54.9782 H       1  ZINC001039825450    0.4400
     42 H42       -11.5188   -2.0698   59.0957 H       1  ZINC001039825450    0.0900
     43 H43       -10.3490   -1.6771   57.8049 H       1  ZINC001039825450    0.0900
@<TRIPOS>BOND
     1     1     2    2
     2     2     3    1
     3     2     9   am
     4     3     4    1
     5     3    26    1
     6     3    27    1
     7     4     8    1
     8     4     5    1
     9     5     6    2
    10     6     7    1
    11     6    28    1
    12     7     8    2
    13     7    29    1
    14     9    10    1
    15     9    30    1
    16    10    11    1
    17    10    31    1
    18    10    32    1
    19    11    25    1
    20    11    12    1
    21    11    13    1
    22    12    33    1
    23    13    14    1
    24    13    34    1
    25    13    35    1
    26    14    15    1
    27    14    36    1
    28    14    37    1
    29    15    16   am
    30    15    25    1
    31    16    17    2
    32    16    18    1
    33    18    19    1
    34    18    24    1
    35    18    20    1
    36    20    21    1
    37    20    38    1
    38    20    39    1
    39    21    22   am
    40    21    40    1
    41    22    23    2
    42    22    24   am
    43    24    41    1
    44    25    42    1
    45    25    43    1
@<TRIPOS>SUBSTRUCTURE
     1 ZINC001039825450        1 TEMP              0 ****  ****    0 ROOT


##########                                Name:    ZINC000011620562
##########                DOCK_Rotatable_Bonds:                   9
##########                         Heavy_Atoms:                  29
##########                    Molecular_Weight:             417.448
##########                DOCK_Rotatable_Bonds:                   9
##########                       Formal_Charge:           0.0299999
##########                     HBond_Acceptors:                  12
##########                        HBond_Donors:                   1
##########                         Heavy_Atoms:                  29
##########                          Grid_Score:          -39.481941
##########                     Grid_vdw_energy:          -37.487122
##########                      Grid_es_energy:           -1.994821
##########           Internal_energy_repulsive:            9.932697

@<TRIPOS>MOLECULE
ZINC000011620562
 48 50 1 0 0
SMALL
USER_CHARGES


@<TRIPOS>ATOM
      1 C1         -7.2170    1.6643   51.6530 C.3     1  ZINC000011620562    0.0400
      2 O2         -7.0849    0.2406   51.4006 O.3     1  ZINC000011620562   -0.3500
      3 C3         -8.0394   -0.5585   51.9028 C.2     1  ZINC000011620562    0.4600
      4 O4         -7.9396   -1.7581   51.7986 O.2     1  ZINC000011620562   -0.5000
      5 C5         -9.2356    0.0406   52.5966 C.3     1  ZINC000011620562    0.1300
      6 N6         -9.8916   -0.9848   53.4117 N.am    1  ZINC000011620562   -0.7200
      7 C7        -10.9303   -1.6819   52.9100 C.2     1  ZINC000011620562    0.5400
      8 O8        -11.3210   -1.4613   51.7832 O.2     1  ZINC000011620562   -0.5200
      9 C9        -11.6063   -2.7354   53.7491 C.3     1  ZINC000011620562   -0.1600
     10 S10       -11.5681   -2.2372   55.4887 S.3     1  ZINC000011620562    0.1400
     11 C11       -12.4094   -3.6036   56.2168 C.2     1  ZINC000011620562    0.2100
     12 N12       -13.0303   -4.5711   55.5765 N.2     1  ZINC000011620562   -0.3400
     13 N13       -13.5365   -5.4083   56.4084 N.2     1  ZINC000011620562   -0.0300
     14 N14       -13.2828   -5.0470   57.6194 N.2     1  ZINC000011620562   -0.0800
     15 N15       -12.5340   -3.8596   57.5420 N.pl3   1  ZINC000011620562   -0.2600
     16 C16       -12.0283   -3.0962   58.6118 C.2     1  ZINC000011620562   -0.1300
     17 C17       -10.7733   -3.1609   59.1114 C.2     1  ZINC000011620562    0.2500
     18 C18        -9.6732   -4.0647   58.6179 C.3     1  ZINC000011620562   -0.1100
     19 N19       -10.6728   -2.2652   60.1417 N.pl3   1  ZINC000011620562   -0.3700
     20 C20        -9.4778   -2.0207   60.9531 C.3     1  ZINC000011620562    0.0900
     21 N21       -11.9090   -1.6223   60.2863 N.am    1  ZINC000011620562   -0.3600
     22 C22       -12.2200   -0.6367   61.2285 C.ar    1  ZINC000011620562    0.1400
     23 C23       -13.1736   -0.8858   62.2072 C.ar    1  ZINC000011620562   -0.1300
     24 C24       -13.4779    0.0894   63.1365 C.ar    1  ZINC000011620562   -0.1000
     25 C25       -12.8345    1.3127   63.0933 C.ar    1  ZINC000011620562   -0.1100
     26 C26       -11.8849    1.5640   62.1200 C.ar    1  ZINC000011620562   -0.1000
     27 C27       -11.5717    0.5910   61.1912 C.ar    1  ZINC000011620562   -0.1000
     28 C28       -12.7441   -2.1194   59.3514 C.2     1  ZINC000011620562    0.5500
     29 O29       -13.9047   -1.7942   59.1780 O.2     1  ZINC000011620562   -0.5000
     30 H30        -7.2144    1.8446   52.7280 H       1  ZINC000011620562    0.0700
     31 H31        -6.3823    2.1938   51.1937 H       1  ZINC000011620562    0.1100
     32 H32        -8.1538    2.0234   51.2267 H       1  ZINC000011620562    0.0700
     33 H33        -8.9111    0.8610   53.2367 H       1  ZINC000011620562    0.1200
     34 H34        -9.9372    0.4164   51.8518 H       1  ZINC000011620562    0.1200
     35 H35        -9.5783   -1.1621   54.3124 H       1  ZINC000011620562    0.4200
     36 H36       -12.6412   -2.8484   53.4261 H       1  ZINC000011620562    0.1400
     37 H37       -11.0832   -3.6845   53.6314 H       1  ZINC000011620562    0.1400
     38 H38       -10.0426   -4.6673   57.7881 H       1  ZINC000011620562    0.1000
     39 H39        -8.8304   -3.4610   58.2814 H       1  ZINC000011620562    0.1000
     40 H40        -9.3507   -4.7197   59.4273 H       1  ZINC000011620562    0.1000
     41 H41        -8.6792   -2.6908   60.6348 H       1  ZINC000011620562    0.1100
     42 H42        -9.1571   -0.9868   60.8253 H       1  ZINC000011620562    0.0900
     43 H43        -9.7080   -2.2026   62.0029 H       1  ZINC000011620562    0.0900
     44 H44       -13.6767   -1.8409   62.2412 H       1  ZINC000011620562    0.1300
     45 H45       -14.2197   -0.1034   63.8976 H       1  ZINC000011620562    0.1300
     46 H46       -13.0744    2.0736   63.8213 H       1  ZINC000011620562    0.1300
     47 H47       -11.3848    2.5206   62.0887 H       1  ZINC000011620562    0.1400
     48 H48       -10.8298    0.7878   60.4315 H       1  ZINC000011620562    0.1400
@<TRIPOS>BOND
     1     1     2    1
     2     1    30    1
     3     1    31    1
     4     1    32    1
     5     2     3    1
     6     3     4    2
     7     3     5    1
     8     5     6    1
     9     5    33    1
    10     5    34    1
    11     6     7   am
    12     6    35    1
    13     7     8    2
    14     7     9    1
    15     9    10    1
    16     9    36    1
    17     9    37    1
    18    10    11    1
    19    11    15    1
    20    11    12    2
    21    12    13    1
    22    13    14    2
    23    14    15    1
    24    15    16    1
    25    16    28    1
    26    16    17    2
    27    17    18    1
    28    17    19    1
    29    18    38    1
    30    18    39    1
    31    18    40    1
    32    19    20    1
    33    19    21    1
    34    20    41    1
    35    20    42    1
    36    20    43    1
    37    21    22    1
    38    21    28   am
    39    22    27   ar
    40    22    23   ar
    41    23    24   ar
    42    23    44    1
    43    24    25   ar
    44    24    45    1
    45    25    26   ar
    46    25    46    1
    47    26    27   ar
    48    26    47    1
    49    27    48    1
    50    28    29    2
@<TRIPOS>SUBSTRUCTURE
     1 ZINC000011620562        1 TEMP              0 ****  ****    0 ROOT


##########                                Name:    ZINC000451019064
##########                DOCK_Rotatable_Bonds:                   8
##########                         Heavy_Atoms:                  23
##########                    Molecular_Weight:             346.534
##########                DOCK_Rotatable_Bonds:                   8
##########                       Formal_Charge:          -0.0200008
##########                     HBond_Acceptors:                   6
##########                        HBond_Donors:                   1
##########                         Heavy_Atoms:                  23
##########                          Grid_Score:          -39.412540
##########                     Grid_vdw_energy:          -37.253166
##########                      Grid_es_energy:           -2.159374
##########           Internal_energy_repulsive:           13.216196

@<TRIPOS>MOLECULE
ZINC000451019064
 57 58 1 0 0
SMALL
USER_CHARGES


@<TRIPOS>ATOM
      1 C1        -10.7281   -0.3274   56.4303 C.3     1  ZINC000451019064   -0.1500
      2 C2        -10.8558   -1.2664   57.6316 C.3     1  ZINC000451019064    0.0900
      3 H3        -11.8338   -1.1343   58.0944 H       1  ZINC000451019064    0.0700
      4 C4         -9.7600   -0.9442   58.6510 C.3     1  ZINC000451019064    0.0200
      5 N5         -9.8396   -1.8985   59.7664 N.3     1  ZINC000451019064   -0.5400
      6 C6         -8.8392   -1.5889   60.7966 C.3     1  ZINC000451019064    0.0600
      7 C7         -9.4409   -0.6202   61.8168 C.3     1  ZINC000451019064   -0.1300
      8 C8         -8.5846   -0.6183   63.0848 C.3     1  ZINC000451019064    0.1100
      9 N9         -9.3117    0.0546   64.1640 N.am    1  ZINC000451019064   -1.1200
     10 S10        -8.5790    0.2998   65.6288 S.o2    1  ZINC000451019064    2.6100
     11 O11        -9.5298    1.0463   66.3757 O.2     1  ZINC000451019064   -0.9600
     12 O12        -8.1791   -0.9995   66.0425 O.2     1  ZINC000451019064   -0.9500
     13 C13        -7.1290    1.3198   65.2445 C.3     1  ZINC000451019064   -0.6300
     14 C14        -6.2812    1.4970   66.5057 C.3     1  ZINC000451019064   -0.1100
     15 C15        -5.0116    2.2783   66.1613 C.3     1  ZINC000451019064   -0.0800
     16 C16        -4.2084    1.5087   65.1109 C.3     1  ZINC000451019064   -0.1200
     17 C17        -2.9387    2.2899   64.7665 C.3     1  ZINC000451019064   -0.1200
     18 C18        -3.3201    3.6636   64.2112 C.3     1  ZINC000451019064   -0.1200
     19 C19        -4.1234    4.4333   65.2616 C.3     1  ZINC000451019064   -0.1200
     20 C20        -5.3931    3.6520   65.6060 C.3     1  ZINC000451019064   -0.1200
     21 C21        -9.6882   -3.2787   59.2830 C.3     1  ZINC000451019064    0.0200
     22 C22       -10.7847   -3.5775   58.2571 C.3     1  ZINC000451019064    0.0900
     23 H23       -11.7606   -3.5133   58.7383 H       1  ZINC000451019064    0.0700
     24 C24       -10.5855   -4.9852   57.6916 C.3     1  ZINC000451019064   -0.1500
     25 O25       -10.7126   -2.6211   57.1962 O.3     1  ZINC000451019064   -0.3800
     26 H26       -11.5075   -0.5584   55.7041 H       1  ZINC000451019064    0.0700
     27 H27       -10.8357    0.7049   56.7630 H       1  ZINC000451019064    0.0700
     28 H28        -9.7499   -0.4600   55.9679 H       1  ZINC000451019064    0.0600
     29 H29        -8.7836   -1.0235   58.1731 H       1  ZINC000451019064    0.0400
     30 H30        -9.9002    0.0688   59.0281 H       1  ZINC000451019064    0.0900
     31 H31        -8.5403   -2.5080   61.3007 H       1  ZINC000451019064    0.0400
     32 H32        -7.9674   -1.1301   60.3303 H       1  ZINC000451019064    0.0800
     33 H33        -9.4658    0.3839   61.3937 H       1  ZINC000451019064    0.0800
     34 H34       -10.4546   -0.9359   62.0636 H       1  ZINC000451019064    0.0800
     35 H35        -8.3675   -1.6454   63.3781 H       1  ZINC000451019064    0.0800
     36 H36        -7.6507   -0.0905   62.8916 H       1  ZINC000451019064    0.0700
     37 H37       -10.2223    0.3566   64.0207 H       1  ZINC000451019064    0.4200
     38 H38        -6.5345    0.8302   64.4729 H       1  ZINC000451019064    0.1300
     39 H39        -7.4560    2.2959   64.8862 H       1  ZINC000451019064    0.1400
     40 H40        -6.8535    2.0452   67.2540 H       1  ZINC000451019064    0.0800
     41 H41        -6.0095    0.5183   66.9013 H       1  ZINC000451019064    0.0800
     42 H42        -4.4077    2.4045   67.0598 H       1  ZINC000451019064    0.0800
     43 H43        -3.9366    0.5300   65.5065 H       1  ZINC000451019064    0.0600
     44 H44        -4.8123    1.3824   64.2123 H       1  ZINC000451019064    0.0700
     45 H45        -2.3349    2.4162   65.6650 H       1  ZINC000451019064    0.0600
     46 H46        -2.3665    1.7417   64.0182 H       1  ZINC000451019064    0.0600
     47 H47        -2.4157    4.2202   63.9658 H       1  ZINC000451019064    0.0600
     48 H48        -3.9241    3.5374   63.3126 H       1  ZINC000451019064    0.0600
     49 H49        -3.5195    4.5595   66.1601 H       1  ZINC000451019064    0.0600
     50 H50        -4.3951    5.4120   64.8660 H       1  ZINC000451019064    0.0600
     51 H51        -5.9970    3.5257   64.7075 H       1  ZINC000451019064    0.0700
     52 H52        -5.9653    4.2003   66.3543 H       1  ZINC000451019064    0.0600
     53 H53        -8.7107   -3.3953   58.8151 H       1  ZINC000451019064    0.0400
     54 H54        -9.7760   -3.9697   60.1213 H       1  ZINC000451019064    0.0900
     55 H55       -10.6380   -5.7128   58.5016 H       1  ZINC000451019064    0.0700
     56 H56       -11.3664   -5.1973   56.9614 H       1  ZINC000451019064    0.0700
     57 H57        -9.6101   -5.0482   57.2092 H       1  ZINC000451019064    0.0600
@<TRIPOS>BOND
     1     1     2    1
     2     1    26    1
     3     1    27    1
     4     1    28    1
     5     2     3    1
     6     2    25    1
     7     2     4    1
     8     4     5    1
     9     4    29    1
    10     4    30    1
    11     5     6    1
    12     5    21    1
    13     6     7    1
    14     6    31    1
    15     6    32    1
    16     7     8    1
    17     7    33    1
    18     7    34    1
    19     8     9    1
    20     8    35    1
    21     8    36    1
    22     9    10   am
    23     9    37    1
    24    10    11    2
    25    10    12    2
    26    10    13    1
    27    13    14    1
    28    13    38    1
    29    13    39    1
    30    14    15    1
    31    14    40    1
    32    14    41    1
    33    15    20    1
    34    15    16    1
    35    15    42    1
    36    16    17    1
    37    16    43    1
    38    16    44    1
    39    17    18    1
    40    17    45    1
    41    17    46    1
    42    18    19    1
    43    18    47    1
    44    18    48    1
    45    19    20    1
    46    19    49    1
    47    19    50    1
    48    20    51    1
    49    20    52    1
    50    21    22    1
    51    21    53    1
    52    21    54    1
    53    22    23    1
    54    22    24    1
    55    22    25    1
    56    24    55    1
    57    24    56    1
    58    24    57    1
@<TRIPOS>SUBSTRUCTURE
     1 ZINC000451019064        1 TEMP              0 ****  ****    0 ROOT


##########                                Name:    ZINC000770814339
##########                DOCK_Rotatable_Bonds:                  13
##########                         Heavy_Atoms:                  28
##########                    Molecular_Weight:             409.423
##########                DOCK_Rotatable_Bonds:                  13
##########                       Formal_Charge:          -0.0100008
##########                     HBond_Acceptors:                  12
##########                        HBond_Donors:                   4
##########                         Heavy_Atoms:                  28
##########                          Grid_Score:          -39.377048
##########                     Grid_vdw_energy:          -37.247234
##########                      Grid_es_energy:           -2.129814
##########           Internal_energy_repulsive:           11.454714

@<TRIPOS>MOLECULE
ZINC000770814339
 47 48 1 0 0
SMALL
USER_CHARGES


@<TRIPOS>ATOM
      1 C1         -7.3499    2.1470   67.3773 C.3     1  ZINC000770814339   -0.1500
      2 C2         -8.8149    1.9992   66.9616 C.3     1  ZINC000770814339    0.0600
      3 O3         -9.0869    0.6114   66.6325 O.3     1  ZINC000770814339   -0.3500
      4 C4         -8.3063    0.0417   65.7011 C.2     1  ZINC000770814339    0.4700
      5 O5         -7.8508   -1.0618   65.8872 O.2     1  ZINC000770814339   -0.4800
      6 C6         -7.9976    0.7785   64.4232 C.3     1  ZINC000770814339    0.0700
      7 O7         -8.5844    0.0852   63.3199 O.3     1  ZINC000770814339   -0.1800
      8 N8        -10.0003    0.0735   63.3343 N.2     1  ZINC000770814339   -0.2800
      9 C9        -10.6603   -0.2305   62.2526 C.2     1  ZINC000770814339    0.1800
     10 C10        -9.9290   -0.5657   61.0079 C.2     1  ZINC000770814339    0.5900
     11 O11        -9.6919    0.3013   60.1903 O.2     1  ZINC000770814339   -0.5100
     12 N12        -9.5271   -1.8323   60.7828 N.am    1  ZINC000770814339   -0.7000
     13 C13        -8.8027   -2.1633   59.5533 C.3     1  ZINC000770814339    0.1500
     14 C14        -9.7772   -2.6494   58.5115 C.ar    1  ZINC000770814339   -0.0600
     15 C15       -10.3612   -1.7507   57.6385 C.ar    1  ZINC000770814339   -0.1200
     16 C16       -11.2550   -2.1966   56.6829 C.ar    1  ZINC000770814339   -0.0200
     17 C17       -11.5644   -3.5413   56.6000 C.ar    1  ZINC000770814339   -0.6700
     18 S18       -12.7042   -4.1095   55.3823 S.o2    1  ZINC000770814339    2.7000
     19 N19       -11.8553   -4.3182   53.9758 N.am    1  ZINC000770814339   -1.2500
     20 O20       -13.1206   -5.4038   55.7954 O.2     1  ZINC000770814339   -0.9600
     21 O21       -13.6095   -3.0392   55.1496 O.2     1  ZINC000770814339   -0.9600
     22 C22       -10.9794   -4.4402   57.4720 C.ar    1  ZINC000770814339   -0.0200
     23 C23       -10.0827   -3.9948   58.4252 C.ar    1  ZINC000770814339   -0.1200
     24 C24       -12.1366   -0.2407   62.2669 C.2     1  ZINC000770814339    0.0600
     25 C25       -12.9484    0.1763   63.2999 C.2     1  ZINC000770814339   -0.2000
     26 C26       -14.2711   -0.0031   62.8977 C.2     1  ZINC000770814339    0.0400
     27 N27       -14.2777   -0.5018   61.6873 N.2     1  ZINC000770814339   -0.2600
     28 N28       -12.9542   -0.6593   61.2578 N.pl3   1  ZINC000770814339   -0.4400
     29 H29        -7.1457    3.1888   67.6243 H       1  ZINC000770814339    0.0800
     30 H30        -7.1547    1.5220   68.2486 H       1  ZINC000770814339    0.0700
     31 H31        -6.7057    1.8356   66.5551 H       1  ZINC000770814339    0.0700
     32 H32        -9.4591    2.3107   67.7838 H       1  ZINC000770814339    0.0700
     33 H33        -9.0101    2.6243   66.0901 H       1  ZINC000770814339    0.0700
     34 H34        -8.4069    1.7873   64.4776 H       1  ZINC000770814339    0.1100
     35 H35        -6.9176    0.8315   64.2861 H       1  ZINC000770814339    0.1100
     36 H36        -9.7174   -2.5247   61.4350 H       1  ZINC000770814339    0.4100
     37 H37        -8.2889   -1.2758   59.1841 H       1  ZINC000770814339    0.0900
     38 H38        -8.0728   -2.9457   59.7610 H       1  ZINC000770814339    0.0900
     39 H39       -10.1194   -0.7000   57.7033 H       1  ZINC000770814339    0.1400
     40 H40       -11.7117   -1.4943   56.0014 H       1  ZINC000770814339    0.1500
     41 H41       -11.3978   -3.5657   53.5692 H       1  ZINC000770814339    0.4200
     42 H42       -11.8156   -5.1930   53.5586 H       1  ZINC000770814339    0.4200
     43 H43       -11.2209   -5.4909   57.4070 H       1  ZINC000770814339    0.1500
     44 H44        -9.6256   -4.6971   59.1065 H       1  ZINC000770814339    0.1400
     45 H45       -12.6191    0.5707   64.2499 H       1  ZINC000770814339    0.1700
     46 H46       -15.1454    0.2302   63.4872 H       1  ZINC000770814339    0.1900
     47 H47       -12.6694   -1.0089   60.3990 H       1  ZINC000770814339    0.4500
@<TRIPOS>BOND
     1     1     2    1
     2     1    29    1
     3     1    30    1
     4     1    31    1
     5     2     3    1
     6     2    32    1
     7     2    33    1
     8     3     4    1
     9     4     5    2
    10     4     6    1
    11     6     7    1
    12     6    34    1
    13     6    35    1
    14     7     8    1
    15     8     9    2
    16     9    10    1
    17     9    24    1
    18    10    11    2
    19    10    12   am
    20    12    13    1
    21    12    36    1
    22    13    14    1
    23    13    37    1
    24    13    38    1
    25    14    23   ar
    26    14    15   ar
    27    15    16   ar
    28    15    39    1
    29    16    17   ar
    30    16    40    1
    31    17    18    1
    32    17    22   ar
    33    18    19   am
    34    18    20    2
    35    18    21    2
    36    19    41    1
    37    19    42    1
    38    22    23   ar
    39    22    43    1
    40    23    44    1
    41    24    28    1
    42    24    25    2
    43    25    26    1
    44    25    45    1
    45    26    27    2
    46    26    46    1
    47    27    28    1
    48    28    47    1
@<TRIPOS>SUBSTRUCTURE
     1 ZINC000770814339        1 TEMP              0 ****  ****    0 ROOT


##########                                Name:    ZINC000461678839
##########                DOCK_Rotatable_Bonds:                   6
##########                         Heavy_Atoms:                  28
##########                    Molecular_Weight:             404.939
##########                DOCK_Rotatable_Bonds:                   6
##########                       Formal_Charge:          -0.0200003
##########                     HBond_Acceptors:                   7
##########                        HBond_Donors:                   0
##########                         Heavy_Atoms:                  28
##########                          Grid_Score:          -39.376801
##########                     Grid_vdw_energy:          -38.885288
##########                      Grid_es_energy:           -0.491512
##########           Internal_energy_repulsive:           10.406450

@<TRIPOS>MOLECULE
ZINC000461678839
 57 60 1 0 0
SMALL
USER_CHARGES


@<TRIPOS>ATOM
      1 C1        -13.5872   -2.1141   52.1774 C.3     1  ZINC000461678839   -0.1500
      2 C2        -13.0056   -3.1581   53.1327 C.3     1  ZINC000461678839   -0.0900
      3 H3        -12.6343   -4.0029   52.5526 H       1  ZINC000461678839    0.0700
      4 C4        -14.1216   -3.6499   54.0817 C.3     1  ZINC000461678839   -0.1100
      5 C5        -13.6913   -4.9504   54.7062 C.3     1  ZINC000461678839   -0.1200
      6 C6        -12.9605   -4.7589   56.0473 C.3     1  ZINC000461678839    0.0600
      7 N7        -11.9948   -3.6381   56.0336 N.3     1  ZINC000461678839   -0.4600
      8 C8        -11.1762   -3.6742   57.1513 C.2     1  ZINC000461678839    0.3700
      9 N9        -10.1397   -4.4580   57.3339 N.2     1  ZINC000461678839   -0.3100
     10 N10        -9.6122   -4.2236   58.4823 N.2     1  ZINC000461678839   -0.2500
     11 C11       -10.2753   -3.2846   59.0953 C.2     1  ZINC000461678839    0.1700
     12 C12        -9.9737   -2.7241   60.4614 C.3     1  ZINC000461678839    0.1500
     13 O13        -9.9437   -1.2970   60.3947 O.3     1  ZINC000461678839   -0.3100
     14 C14        -9.8692   -0.6256   61.5741 C.ar    1  ZINC000461678839    0.1400
     15 C15       -10.7225    0.4397   61.8220 C.ar    1  ZINC000461678839   -0.2000
     16 C16       -10.6452    1.1209   63.0213 C.ar    1  ZINC000461678839   -0.0700
     17 C17        -9.7172    0.7416   63.9749 C.ar    1  ZINC000461678839   -0.0700
     18 Cl18       -9.6215    1.5995   65.4810 Cl      1  ZINC000461678839   -0.0700
     19 C19        -8.8654   -0.3209   63.7297 C.ar    1  ZINC000461678839   -0.0700
     20 C20        -8.9436   -1.0082   62.5339 C.ar    1  ZINC000461678839   -0.1400
     21 N21       -11.2922   -2.8975   58.2671 N.pl3   1  ZINC000461678839   -0.4600
     22 C22       -12.3019   -1.8685   58.5273 C.3     1  ZINC000461678839    0.1200
     23 C23       -13.5420   -2.5159   59.1469 C.3     1  ZINC000461678839   -0.1400
     24 H24       -13.5659   -3.5826   58.9239 H       1  ZINC000461678839    0.0900
     25 C25       -14.8283   -1.8257   58.6315 C.3     1  ZINC000461678839   -0.1500
     26 C26       -15.6964   -1.7579   59.9137 C.3     1  ZINC000461678839    0.0500
     27 O27       -14.7356   -1.4882   60.9571 O.3     1  ZINC000461678839   -0.3700
     28 C28       -13.5686   -2.2823   60.6698 C.3     1  ZINC000461678839    0.0400
     29 C29       -11.2137   -3.5618   54.8226 C.3     1  ZINC000461678839    0.0700
     30 C30       -11.8967   -2.5630   53.8703 C.3     1  ZINC000461678839   -0.1100
     31 H31       -12.8099   -1.7757   51.4921 H       1  ZINC000461678839    0.0500
     32 H32       -14.4049   -2.5572   51.6089 H       1  ZINC000461678839    0.0500
     33 H33       -13.9610   -1.2655   52.7504 H       1  ZINC000461678839    0.0600
     34 H34       -14.2903   -2.9081   54.8623 H       1  ZINC000461678839    0.0700
     35 H35       -15.0407   -3.8031   53.5162 H       1  ZINC000461678839    0.0700
     36 H36       -14.5733   -5.5689   54.8722 H       1  ZINC000461678839    0.0800
     37 H37       -13.0267   -5.4687   54.0151 H       1  ZINC000461678839    0.0700
     38 H38       -13.7008   -4.5731   56.8255 H       1  ZINC000461678839    0.0700
     39 H39       -12.4262   -5.6778   56.2886 H       1  ZINC000461678839    0.0500
     40 H40       -10.7469   -3.0389   61.1621 H       1  ZINC000461678839    0.0800
     41 H41        -9.0051   -3.0925   60.7994 H       1  ZINC000461678839    0.1000
     42 H42       -11.4466    0.7366   61.0777 H       1  ZINC000461678839    0.1400
     43 H43       -11.3094    1.9503   63.2146 H       1  ZINC000461678839    0.1400
     44 H44        -8.1419   -0.6158   64.4753 H       1  ZINC000461678839    0.1400
     45 H45        -8.2786   -1.8376   62.3428 H       1  ZINC000461678839    0.1400
     46 H46       -11.8963   -1.1275   59.2163 H       1  ZINC000461678839    0.1100
     47 H47       -12.5752   -1.3825   57.5908 H       1  ZINC000461678839    0.1000
     48 H48       -14.6097   -0.8259   58.2564 H       1  ZINC000461678839    0.0800
     49 H49       -15.3135   -2.4298   57.8649 H       1  ZINC000461678839    0.0900
     50 H50       -16.4233   -0.9487   59.8428 H       1  ZINC000461678839    0.1000
     51 H51       -16.1966   -2.7103   60.0894 H       1  ZINC000461678839    0.0600
     52 H52       -13.6315   -3.2365   61.1930 H       1  ZINC000461678839    0.0500
     53 H53       -12.6707   -1.7468   60.9781 H       1  ZINC000461678839    0.1100
     54 H54       -10.2064   -3.2171   55.0564 H       1  ZINC000461678839    0.0900
     55 H55       -11.1665   -4.5445   54.3534 H       1  ZINC000461678839    0.0600
     56 H56       -11.1587   -2.1953   53.1574 H       1  ZINC000461678839    0.0700
     57 H57       -12.2708   -1.7209   54.4525 H       1  ZINC000461678839    0.0700
@<TRIPOS>BOND
     1     1     2    1
     2     1    31    1
     3     1    32    1
     4     1    33    1
     5     2     3    1
     6     2    30    1
     7     2     4    1
     8     4     5    1
     9     4    34    1
    10     4    35    1
    11     5     6    1
    12     5    36    1
    13     5    37    1
    14     6     7    1
    15     6    38    1
    16     6    39    1
    17     7     8    1
    18     7    29    1
    19     8    21    1
    20     8     9    2
    21     9    10    1
    22    10    11    2
    23    11    12    1
    24    11    21    1
    25    12    13    1
    26    12    40    1
    27    12    41    1
    28    13    14    1
    29    14    20   ar
    30    14    15   ar
    31    15    16   ar
    32    15    42    1
    33    16    17   ar
    34    16    43    1
    35    17    18    1
    36    17    19   ar
    37    19    20   ar
    38    19    44    1
    39    20    45    1
    40    21    22    1
    41    22    23    1
    42    22    46    1
    43    22    47    1
    44    23    24    1
    45    23    28    1
    46    23    25    1
    47    25    26    1
    48    25    48    1
    49    25    49    1
    50    26    27    1
    51    26    50    1
    52    26    51    1
    53    27    28    1
    54    28    52    1
    55    28    53    1
    56    29    30    1
    57    29    54    1
    58    29    55    1
    59    30    56    1
    60    30    57    1
@<TRIPOS>SUBSTRUCTURE
     1 ZINC000461678839        1 TEMP              0 ****  ****    0 ROOT


##########                                Name:    ZINC001289410668
##########                DOCK_Rotatable_Bonds:                  11
##########                         Heavy_Atoms:                  26
##########                    Molecular_Weight:             362.515
##########                DOCK_Rotatable_Bonds:                  11
##########                       Formal_Charge:          -0.0400008
##########                     HBond_Acceptors:                   6
##########                        HBond_Donors:                   1
##########                         Heavy_Atoms:                  26
##########                          Grid_Score:          -39.190113
##########                     Grid_vdw_energy:          -37.308414
##########                      Grid_es_energy:           -1.881697
##########           Internal_energy_repulsive:           15.951395

@<TRIPOS>MOLECULE
ZINC001289410668
 60 61 1 0 0
SMALL
USER_CHARGES


@<TRIPOS>ATOM
      1 C1         -4.8160    2.7783   66.5386 C.3     1  ZINC001289410668   -0.1500
      2 C2         -6.1019    2.0435   66.9230 C.3     1  ZINC001289410668   -0.1300
      3 C3         -6.9714    1.8526   65.6787 C.3     1  ZINC001289410668   -0.1200
      4 C4         -8.2567    1.1166   66.0628 C.3     1  ZINC001289410668   -0.1200
      5 C5         -9.1012    0.8770   64.8098 C.3     1  ZINC001289410668   -0.1100
      6 C6         -8.4451   -0.2068   63.9520 C.3     1  ZINC001289410668   -0.1400
      7 C7         -9.3470   -0.5446   62.7929 C.2     1  ZINC001289410668    0.5100
      8 O8        -10.5308   -0.2871   62.8505 O.2     1  ZINC001289410668   -0.5300
      9 N9         -8.8382   -1.1330   61.6923 N.am    1  ZINC001289410668   -0.7200
     10 C10        -9.7153   -1.4631   60.5662 C.3     1  ZINC001289410668    0.1400
     11 H11       -10.7633   -1.4092   60.8612 H       1  ZINC001289410668    0.1100
     12 C12        -9.3728   -2.8579   59.9860 C.3     1  ZINC001289410668    0.0800
     13 N13        -9.8371   -2.8094   58.5877 N.am    1  ZINC001289410668   -0.6200
     14 C14       -10.1745   -3.8749   57.8345 C.2     1  ZINC001289410668    0.5100
     15 O15       -10.1059   -4.9927   58.3000 O.2     1  ZINC001289410668   -0.5100
     16 C16       -10.6369   -3.6774   56.4138 C.3     1  ZINC001289410668    0.0900
     17 N17       -12.0268   -4.1227   56.2863 N.pl3   1  ZINC001289410668   -0.4500
     18 C18       -12.5262   -5.3419   56.6576 C.2     1  ZINC001289410668   -0.0500
     19 C19       -13.8412   -5.3291   56.3668 C.2     1  ZINC001289410668   -0.0200
     20 N20       -14.1364   -4.1347   55.8327 N.2     1  ZINC001289410668   -0.4800
     21 C21       -13.0556   -3.4051   55.7861 C.2     1  ZINC001289410668    0.2300
     22 C22       -12.9679   -1.9981   55.2534 C.3     1  ZINC001289410668   -0.0100
     23 C23       -12.5534   -2.0350   53.7810 C.3     1  ZINC001289410668   -0.1400
     24 C24       -14.3324   -1.3181   55.3822 C.3     1  ZINC001289410668   -0.1400
     25 C25        -9.8720   -1.4059   58.1510 C.3     1  ZINC001289410668    0.1100
     26 C26        -9.4313   -0.5409   59.3513 C.3     1  ZINC001289410668   -0.1100
     27 H27        -8.3691   -0.3048   59.2871 H       1  ZINC001289410668    0.0900
     28 C28       -10.2646    0.7397   59.4305 C.3     1  ZINC001289410668   -0.1400
     29 H29        -4.1965    2.9145   67.4251 H       1  ZINC001289410668    0.0500
     30 H30        -4.2696    2.1922   65.7999 H       1  ZINC001289410668    0.0500
     31 H31        -5.0661    3.7520   66.1172 H       1  ZINC001289410668    0.0500
     32 H32        -5.8518    1.0699   67.3444 H       1  ZINC001289410668    0.0600
     33 H33        -6.6483    2.6297   67.6618 H       1  ZINC001289410668    0.0600
     34 H34        -7.2223    2.8262   65.2578 H       1  ZINC001289410668    0.0600
     35 H35        -6.4246    1.2671   64.9396 H       1  ZINC001289410668    0.0600
     36 H36        -8.0046    0.1595   66.5195 H       1  ZINC001289410668    0.0600
     37 H37        -8.8227    1.7199   66.7725 H       1  ZINC001289410668    0.0600
     38 H38       -10.1006    0.5541   65.1015 H       1  ZINC001289410668    0.0700
     39 H39        -9.1711    1.8014   64.2365 H       1  ZINC001289410668    0.0700
     40 H40        -7.4895    0.1575   63.5747 H       1  ZINC001289410668    0.1000
     41 H41        -8.2808   -1.0988   64.5566 H       1  ZINC001289410668    0.1000
     42 H42        -7.8912   -1.3379   61.6458 H       1  ZINC001289410668    0.4000
     43 H43        -8.2971   -3.0304   60.0228 H       1  ZINC001289410668    0.0800
     44 H44        -9.9018   -3.6373   60.5345 H       1  ZINC001289410668    0.0800
     45 H45       -10.5685   -2.6212   56.1530 H       1  ZINC001289410668    0.1200
     46 H46       -10.0058   -4.2592   55.7421 H       1  ZINC001289410668    0.1200
     47 H47       -11.9723   -6.1575   57.0984 H       1  ZINC001289410668    0.1700
     48 H48       -14.5361   -6.1388   56.5344 H       1  ZINC001289410668    0.1700
     49 H49       -12.2276   -1.4385   55.8252 H       1  ZINC001289410668    0.0700
     50 H50       -13.2937   -2.5946   53.2092 H       1  ZINC001289410668    0.0700
     51 H51       -12.4901   -1.0174   53.3958 H       1  ZINC001289410668    0.0600
     52 H52       -11.5814   -2.5195   53.6893 H       1  ZINC001289410668    0.0500
     53 H53       -15.0727   -1.8777   54.8103 H       1  ZINC001289410668    0.0700
     54 H54       -14.6277   -1.2917   56.4312 H       1  ZINC001289410668    0.0600
     55 H55       -14.2691   -0.3004   54.9970 H       1  ZINC001289410668    0.0600
     56 H56        -9.1859   -1.2601   57.3167 H       1  ZINC001289410668    0.0800
     57 H57       -10.8848   -1.1357   57.8522 H       1  ZINC001289410668    0.0800
     58 H58       -11.3195    0.4816   59.5242 H       1  ZINC001289410668    0.0600
     59 H59        -9.9546    1.3218   60.2984 H       1  ZINC001289410668    0.0600
     60 H60       -10.1135    1.3282   58.5255 H       1  ZINC001289410668    0.0700
@<TRIPOS>BOND
     1     1     2    1
     2     1    29    1
     3     1    30    1
     4     1    31    1
     5     2     3    1
     6     2    32    1
     7     2    33    1
     8     3     4    1
     9     3    34    1
    10     3    35    1
    11     4     5    1
    12     4    36    1
    13     4    37    1
    14     5     6    1
    15     5    38    1
    16     5    39    1
    17     6     7    1
    18     6    40    1
    19     6    41    1
    20     7     8    2
    21     7     9   am
    22     9    10    1
    23     9    42    1
    24    10    11    1
    25    10    26    1
    26    10    12    1
    27    12    13    1
    28    12    43    1
    29    12    44    1
    30    13    14   am
    31    13    25    1
    32    14    15    2
    33    14    16    1
    34    16    17    1
    35    16    45    1
    36    16    46    1
    37    17    21    1
    38    17    18    1
    39    18    19    2
    40    18    47    1
    41    19    20    1
    42    19    48    1
    43    20    21    2
    44    21    22    1
    45    22    23    1
    46    22    24    1
    47    22    49    1
    48    23    50    1
    49    23    51    1
    50    23    52    1
    51    24    53    1
    52    24    54    1
    53    24    55    1
    54    25    26    1
    55    25    56    1
    56    25    57    1
    57    26    27    1
    58    26    28    1
    59    28    58    1
    60    28    59    1
    61    28    60    1
@<TRIPOS>SUBSTRUCTURE
     1 ZINC001289410668        1 TEMP              0 ****  ****    0 ROOT


##########                                Name:    ZINC000980108339
##########                DOCK_Rotatable_Bonds:                   9
##########                         Heavy_Atoms:                  25
##########                    Molecular_Weight:             348.445
##########                DOCK_Rotatable_Bonds:                   9
##########                       Formal_Charge:          -0.0100001
##########                     HBond_Acceptors:                   7
##########                        HBond_Donors:                   3
##########                         Heavy_Atoms:                  25
##########                          Grid_Score:          -39.183895
##########                     Grid_vdw_energy:          -38.780930
##########                      Grid_es_energy:           -0.402965
##########           Internal_energy_repulsive:           11.541119

@<TRIPOS>MOLECULE
ZINC000980108339
 53 56 1 0 0
SMALL
USER_CHARGES


@<TRIPOS>ATOM
      1 C1         -9.8606   -0.1427   61.9864 C.3     1  ZINC000980108339    0.1200
      2 N2         -9.4188   -0.9740   60.8639 N.am    1  ZINC000980108339   -0.6400
      3 C3         -9.2184   -2.4301   60.9092 C.3     1  ZINC000980108339    0.1100
      4 C4         -8.7594   -2.7841   59.4813 C.3     1  ZINC000980108339    0.1000
      5 H5         -7.7594   -3.2176   59.4973 H       1  ZINC000980108339    0.1200
      6 C6         -9.7348   -3.7318   58.8319 C.2     1  ZINC000980108339    0.5000
      7 O7         -9.7540   -4.8998   59.1580 O.2     1  ZINC000980108339   -0.5200
      8 N8        -10.5857   -3.2814   57.8888 N.am    1  ZINC000980108339   -0.7200
      9 C9        -11.5327   -4.2029   57.2564 C.3     1  ZINC000980108339    0.1300
     10 C10       -12.1382   -3.5410   56.0169 C.3     1  ZINC000980108339   -0.1200
     11 H11       -12.5666   -2.5610   56.2272 H       1  ZINC000980108339    0.1000
     12 C12       -11.2070   -3.5565   54.7933 C.3     1  ZINC000980108339   -0.1400
     13 C13       -12.4538   -3.8632   53.9469 C.3     1  ZINC000980108339    0.1200
     14 H14       -12.2772   -4.5950   53.1586 H       1  ZINC000980108339    0.1100
     15 N15       -13.1459   -2.6649   53.4660 N.am    1  ZINC000980108339   -0.7200
     16 C16       -12.7052   -2.0295   52.3621 C.2     1  ZINC000980108339    0.5200
     17 O17       -11.7365   -2.4507   51.7660 O.2     1  ZINC000980108339   -0.5300
     18 C18       -13.4160   -0.7958   51.8683 C.3     1  ZINC000980108339   -0.1100
     19 C19       -13.6890   -0.9302   50.3689 C.3     1  ZINC000980108339   -0.1300
     20 H20       -13.0057   -1.5806   49.8230 H       1  ZINC000980108339    0.1200
     21 C21       -14.2307    0.2992   49.6365 C.3     1  ZINC000980108339   -0.1700
     22 C22       -15.1484   -0.8950   49.9107 C.3     1  ZINC000980108339   -0.1200
     23 H23       -15.9140   -0.7757   50.6773 H       1  ZINC000980108339    0.1000
     24 C24       -15.5373   -1.7747   48.7209 C.3     1  ZINC000980108339   -0.1300
     25 C25       -15.6515   -1.1012   47.3518 C.3     1  ZINC000980108339   -0.1800
     26 C26       -14.4723   -2.0288   47.6522 C.3     1  ZINC000980108339   -0.1800
     27 C27       -13.0749   -4.4647   55.2206 C.3     1  ZINC000980108339   -0.1400
     28 N28        -8.7499   -1.4899   58.7832 N.am    1  ZINC000980108339   -0.7200
     29 C29        -9.1388   -0.5293   59.6318 C.2     1  ZINC000980108339    0.7000
     30 O30        -9.2213    0.6416   59.3149 O.2     1  ZINC000980108339   -0.5800
     31 H31        -9.9266    0.8967   61.6649 H       1  ZINC000980108339    0.0900
     32 H32       -10.8398   -0.4808   62.3257 H       1  ZINC000980108339    0.0600
     33 H33        -9.1444   -0.2255   62.8039 H       1  ZINC000980108339    0.0600
     34 H34        -8.4463   -2.6877   61.6342 H       1  ZINC000980108339    0.1000
     35 H35       -10.1531   -2.9377   61.1475 H       1  ZINC000980108339    0.0900
     36 H36       -10.5713   -2.3469   57.6289 H       1  ZINC000980108339    0.4000
     37 H37       -11.0120   -5.1146   56.9635 H       1  ZINC000980108339    0.0700
     38 H38       -12.3268   -4.4486   57.9615 H       1  ZINC000980108339    0.0700
     39 H39       -10.7579   -2.5878   54.5739 H       1  ZINC000980108339    0.0800
     40 H40       -10.4793   -4.3679   54.8086 H       1  ZINC000980108339    0.1000
     41 H41       -13.9213   -2.3287   53.9420 H       1  ZINC000980108339    0.4000
     42 H42       -14.3603   -0.6829   52.4009 H       1  ZINC000980108339    0.1000
     43 H43       -12.7913    0.0794   52.0469 H       1  ZINC000980108339    0.1000
     44 H44       -14.3925    1.2036   50.2230 H       1  ZINC000980108339    0.0900
     45 H45       -13.9040    0.4572   48.6087 H       1  ZINC000980108339    0.1000
     46 H46       -16.2312   -2.5856   48.9427 H       1  ZINC000980108339    0.1000
     47 H47       -16.4207   -1.4689   46.6726 H       1  ZINC000980108339    0.0900
     48 H48       -15.4495   -0.0315   47.2989 H       1  ZINC000980108339    0.0900
     49 H49       -13.4945   -1.5692   47.7968 H       1  ZINC000980108339    0.0900
     50 H50       -14.4658   -3.0066   47.1706 H       1  ZINC000980108339    0.0900
     51 H51       -12.8582   -5.5246   55.3535 H       1  ZINC000980108339    0.1000
     52 H52       -14.1319   -4.2289   55.3443 H       1  ZINC000980108339    0.0800
     53 H53        -8.5050   -1.3541   57.8545 H       1  ZINC000980108339    0.4400
@<TRIPOS>BOND
     1     1     2    1
     2     1    31    1
     3     1    32    1
     4     1    33    1
     5     2    29   am
     6     2     3    1
     7     3     4    1
     8     3    34    1
     9     3    35    1
    10     4     5    1
    11     4     6    1
    12     4    28    1
    13     6     7    2
    14     6     8   am
    15     8     9    1
    16     8    36    1
    17     9    10    1
    18     9    37    1
    19     9    38    1
    20    10    11    1
    21    10    27    1
    22    10    12    1
    23    12    13    1
    24    12    39    1
    25    12    40    1
    26    13    14    1
    27    13    15    1
    28    13    27    1
    29    15    16   am
    30    15    41    1
    31    16    17    2
    32    16    18    1
    33    18    19    1
    34    18    42    1
    35    18    43    1
    36    19    20    1
    37    19    22    1
    38    19    21    1
    39    21    22    1
    40    21    44    1
    41    21    45    1
    42    22    23    1
    43    22    24    1
    44    24    26    1
    45    24    25    1
    46    24    46    1
    47    25    26    1
    48    25    47    1
    49    25    48    1
    50    26    49    1
    51    26    50    1
    52    27    51    1
    53    27    52    1
    54    28    29   am
    55    28    53    1
    56    29    30    2
@<TRIPOS>SUBSTRUCTURE
     1 ZINC000980108339        1 TEMP              0 ****  ****    0 ROOT


##########                                Name:    ZINC000482846390
##########                DOCK_Rotatable_Bonds:                   9
##########                         Heavy_Atoms:                  30
##########                    Molecular_Weight:             420.469
##########                DOCK_Rotatable_Bonds:                   9
##########                       Formal_Charge:          -0.0100011
##########                     HBond_Acceptors:                  11
##########                        HBond_Donors:                   2
##########                         Heavy_Atoms:                  30
##########                          Grid_Score:          -39.054054
##########                     Grid_vdw_energy:          -34.743134
##########                      Grid_es_energy:           -4.310922
##########           Internal_energy_repulsive:           27.819410

@<TRIPOS>MOLECULE
ZINC000482846390
 58 60 1 0 0
SMALL
USER_CHARGES


@<TRIPOS>ATOM
      1 C1         -8.9353   -2.6025   60.3285 C.3     1  ZINC000482846390   -0.1000
      2 C2         -9.0284   -1.6132   61.4615 C.2     1  ZINC000482846390    0.0900
      3 C3         -9.9350   -0.6153   61.5770 C.2     1  ZINC000482846390   -0.2700
      4 C4         -9.6745    0.0669   62.7699 C.2     1  ZINC000482846390    0.0700
      5 C5        -10.4436    1.2510   63.2967 C.3     1  ZINC000482846390   -0.0500
      6 C6        -11.3737    1.7821   62.2042 C.3     1  ZINC000482846390    0.1500
      7 H7        -10.8142    1.8996   61.2761 H       1  ZINC000482846390    0.1000
      8 C8        -11.9416    3.1369   62.6322 C.3     1  ZINC000482846390   -0.1700
      9 N9        -12.4725    0.8359   61.9956 N.am    1  ZINC000482846390   -0.6800
     10 C10       -13.2712    0.9579   60.9169 C.2     1  ZINC000482846390    0.5100
     11 O11       -13.0793    1.8505   60.1177 O.2     1  ZINC000482846390   -0.5200
     12 C12       -14.3932   -0.0064   60.7050 C.2     1  ZINC000482846390    0.5100
     13 O13       -15.3641    0.0230   61.4325 O.2     1  ZINC000482846390   -0.5100
     14 N14       -14.3268   -0.9086   59.7060 N.am    1  ZINC000482846390   -0.5900
     15 C15       -13.1546   -0.9597   58.8211 C.3     1  ZINC000482846390    0.0500
     16 C16       -12.5835   -2.3829   58.8458 C.3     1  ZINC000482846390    0.1000
     17 N17       -13.6817   -3.3335   58.6222 N.am    1  ZINC000482846390   -0.6000
     18 C18       -13.6149   -4.2363   57.6237 C.2     1  ZINC000482846390    0.5200
     19 O19       -14.5280   -5.0163   57.4489 O.2     1  ZINC000482846390   -0.5000
     20 C20       -12.4164   -4.2770   56.7318 C.2     1  ZINC000482846390    0.5200
     21 O21       -11.4224   -4.8808   57.0785 O.2     1  ZINC000482846390   -0.5000
     22 N22       -12.4394   -3.6431   55.5427 N.am    1  ZINC000482846390   -0.6000
     23 C23       -11.2737   -3.6741   54.6451 C.3     1  ZINC000482846390    0.0700
     24 C24       -11.7490   -4.0949   53.2499 C.3     1  ZINC000482846390    0.0500
     25 O25       -12.8360   -3.2567   52.8502 O.3     1  ZINC000482846390   -0.3700
     26 C26       -13.9915   -3.3583   53.6859 C.3     1  ZINC000482846390    0.0500
     27 C27       -13.6330   -2.9045   55.1010 C.3     1  ZINC000482846390    0.0700
     28 C28       -14.8540   -3.2825   59.5071 C.3     1  ZINC000482846390    0.0900
     29 C29       -15.4226   -1.8629   59.4858 C.3     1  ZINC000482846390    0.0900
     30 N30        -8.6484   -0.5010   63.3499 N.2     1  ZINC000482846390   -0.2800
     31 N31        -8.2261   -1.5675   62.5457 N.pl3   1  ZINC000482846390   -0.4700
     32 H32        -9.5511   -3.4729   60.5547 H       1  ZINC000482846390    0.0800
     33 H33        -9.2891   -2.1361   59.4090 H       1  ZINC000482846390    0.0900
     34 H34        -7.8984   -2.9138   60.2022 H       1  ZINC000482846390    0.0700
     35 H35       -10.7206   -0.3861   60.8724 H       1  ZINC000482846390    0.1500
     36 H36       -11.0347    0.9453   64.1601 H       1  ZINC000482846390    0.0900
     37 H37        -9.7462    2.0345   63.5929 H       1  ZINC000482846390    0.1100
     38 H38       -11.1241    3.8409   62.7873 H       1  ZINC000482846390    0.0700
     39 H39       -12.6043    3.5153   61.8538 H       1  ZINC000482846390    0.0700
     40 H40       -12.5011    3.0195   63.5602 H       1  ZINC000482846390    0.0600
     41 H41       -12.6251    0.1216   62.6338 H       1  ZINC000482846390    0.4200
     42 H42       -13.4522   -0.7026   57.8045 H       1  ZINC000482846390    0.0800
     43 H43       -12.3996   -0.2565   59.1728 H       1  ZINC000482846390    0.1600
     44 H44       -11.8389   -2.4921   58.0572 H       1  ZINC000482846390    0.1100
     45 H45       -12.1243   -2.5760   59.8153 H       1  ZINC000482846390    0.0800
     46 H46       -10.8220   -2.6834   54.5957 H       1  ZINC000482846390    0.0900
     47 H47       -10.5434   -4.3930   55.0165 H       1  ZINC000482846390    0.0900
     48 H48       -10.9291   -3.9914   52.5392 H       1  ZINC000482846390    0.1100
     49 H49       -12.0804   -5.1331   53.2757 H       1  ZINC000482846390    0.0600
     50 H50       -14.7847   -2.7248   53.2889 H       1  ZINC000482846390    0.1100
     51 H51       -14.3309   -4.3937   53.7134 H       1  ZINC000482846390    0.0600
     52 H52       -14.4647   -3.1112   55.7746 H       1  ZINC000482846390    0.1100
     53 H53       -13.4174   -1.8360   55.1003 H       1  ZINC000482846390    0.0800
     54 H54       -15.6088   -3.9857   59.1553 H       1  ZINC000482846390    0.0900
     55 H55       -14.5564   -3.5396   60.5237 H       1  ZINC000482846390    0.0900
     56 H56       -16.1670   -1.7551   60.2748 H       1  ZINC000482846390    0.1100
     57 H57       -15.8819   -1.6673   58.5169 H       1  ZINC000482846390    0.0800
     58 H58        -7.4842   -2.1640   62.7323 H       1  ZINC000482846390    0.4400
@<TRIPOS>BOND
     1     1     2    1
     2     1    32    1
     3     1    33    1
     4     1    34    1
     5     2    31    1
     6     2     3    2
     7     3     4    1
     8     3    35    1
     9     4     5    1
    10     4    30    2
    11     5     6    1
    12     5    36    1
    13     5    37    1
    14     6     7    1
    15     6     8    1
    16     6     9    1
    17     8    38    1
    18     8    39    1
    19     8    40    1
    20     9    10   am
    21     9    41    1
    22    10    11    2
    23    10    12    1
    24    12    13    2
    25    12    14   am
    26    14    29    1
    27    14    15    1
    28    15    16    1
    29    15    42    1
    30    15    43    1
    31    16    17    1
    32    16    44    1
    33    16    45    1
    34    17    18   am
    35    17    28    1
    36    18    19    2
    37    18    20    1
    38    20    21    2
    39    20    22   am
    40    22    27    1
    41    22    23    1
    42    23    24    1
    43    23    46    1
    44    23    47    1
    45    24    25    1
    46    24    48    1
    47    24    49    1
    48    25    26    1
    49    26    27    1
    50    26    50    1
    51    26    51    1
    52    27    52    1
    53    27    53    1
    54    28    29    1
    55    28    54    1
    56    28    55    1
    57    29    56    1
    58    29    57    1
    59    30    31    1
    60    31    58    1
@<TRIPOS>SUBSTRUCTURE
     1 ZINC000482846390        1 TEMP              0 ****  ****    0 ROOT


##########                                Name:     oleObject52.pdb
##########                DOCK_Rotatable_Bonds:                  10
##########                         Heavy_Atoms:                  38
##########                    Molecular_Weight:              533.07
##########                DOCK_Rotatable_Bonds:                  10
##########                       Formal_Charge:         0.000300027
##########                     HBond_Acceptors:                   8
##########                        HBond_Donors:                   0
##########                         Heavy_Atoms:                  38
##########                          Grid_Score:          -39.041653
##########                     Grid_vdw_energy:          -38.828087
##########                      Grid_es_energy:           -0.213567
##########           Internal_energy_repulsive:           25.880447

@<TRIPOS>MOLECULE
oleObject52.pdb
 71 74 1 0 0
SMALL
NO_CHARGES


@<TRIPOS>ATOM
      1 C          -9.7356   -0.5356   52.4443 C.ar    1  UNL        -0.0596
      2 C         -10.3179   -1.8035   52.5908 C.ar    1  UNL        -0.0314
      3 C         -11.6541   -1.9290   53.0270 C.ar    1  UNL         0.0800
      4 C         -12.4125   -0.7706   53.3152 C.ar    1  UNL         0.0089
      5 C         -11.8108    0.4978   53.1686 C.ar    1  UNL        -0.0541
      6 C         -10.4818    0.6146   52.7346 C.ar    1  UNL        -0.0617
      7 C         -13.8650   -0.9155   53.7944 C.3     1  UNL         0.0953
      8 C         -14.8588   -1.0450   52.6266 C.ar    1  UNL         0.0684
      9 C         -16.1251   -0.4080   52.6468 C.ar    1  UNL        -0.0272
     10 C         -16.9724   -0.5656   51.5340 C.ar    1  UNL        -0.0559
     11 C         -16.5389   -1.3405   50.4487 C.ar    1  UNL        -0.0435
     12 C         -15.2686   -1.9321   50.5104 C.ar    1  UNL         0.0272
     13 N         -14.4510   -1.7876   51.5698 N.ar    1  UNL        -0.2587
     14 C         -16.5869    0.4483   53.8197 C.3     1  UNL        -0.0379
     15 N         -14.0547   -1.9212   54.8784 N.am    1  UNL        -0.2917
     16 C         -13.2649   -1.8716   56.0321 C.2     1  UNL         0.2180
     17 O         -12.6065   -0.8765   56.2858 O.2     1  UNL        -0.2772
     18 C         -13.5191   -2.9502   57.1160 C.3     1  UNL         0.0385
     19 C         -13.3639   -2.3831   58.5479 C.3     1  UNL        -0.0289
     20 C         -11.8848   -2.1436   58.9205 C.3     1  UNL        -0.0010
     21 N         -11.0823   -3.3813   58.7838 N.4     1  UNL        -0.3010
     22 C         -11.1569   -3.9679   57.4276 C.3     1  UNL        -0.0010
     23 C         -12.6135   -4.2002   56.9562 C.3     1  UNL        -0.0289
     24 C          -9.6797   -3.2506   59.2373 C.3     1  UNL         0.0222
     25 C          -9.5480   -2.7721   60.6980 C.3     1  UNL         0.0661
     26 O          -9.3081   -1.3537   60.6753 O.3     1  UNL        -0.3432
     27 C          -9.3205   -0.5579   61.8044 C.ar    1  UNL         0.0937
     28 C          -8.5212   -0.8446   62.9310 C.ar    1  UNL        -0.0289
     29 C          -8.5636   -0.0089   64.0594 C.ar    1  UNL        -0.0417
     30 C          -9.4024    1.1188   64.0742 C.ar    1  UNL         0.0537
     31 C         -10.1999    1.4082   62.9541 C.ar    1  UNL        -0.0230
     32 C         -10.1595    0.5743   61.8242 C.ar    1  UNL         0.0721
     33 CL        -11.1697    0.9687   60.4461 Cl      1  UNL        -0.0814
     34 C          -9.4441    1.9707   65.2278 C.1     1  UNL         0.0992
     35 N          -9.4716    2.6503   66.1631 N.1     1  UNL        -0.1924
     36 C         -15.0726   -2.9702   54.6514 C.3     1  UNL         0.0037
     37 O         -12.2482   -3.1693   53.1877 O.3     1  UNL        -0.3490
     38 C         -11.5838   -4.4145   52.9148 C.3     1  UNL         0.0422
     39 H          -8.7066   -0.4455   52.1084 H       1  UNL         0.0624
     40 H          -9.7203   -2.6797   52.3633 H       1  UNL         0.0651
     41 H         -12.3669    1.4021   53.3904 H       1  UNL         0.0627
     42 H         -10.0313    1.5968   52.6243 H       1  UNL         0.0623
     43 H         -14.0913    0.0485   54.2634 H       1  UNL         0.0627
     44 H         -17.9492   -0.0911   51.5074 H       1  UNL         0.0627
     45 H         -17.1711   -1.4765   49.5763 H       1  UNL         0.0639
     46 H         -14.8924   -2.5376   49.6869 H       1  UNL         0.0840
     47 H         -16.4808   -0.0888   54.7681 H       1  UNL         0.0280
     48 H         -17.6413    0.7349   53.7224 H       1  UNL         0.0280
     49 H         -15.9979    1.3719   53.8853 H       1  UNL         0.0280
     50 H         -14.5489   -3.3042   57.0004 H       1  UNL         0.0402
     51 H         -13.7935   -3.0970   59.2626 H       1  UNL         0.0288
     52 H         -13.9327   -1.4529   58.6606 H       1  UNL         0.0288
     53 H         -11.8545   -1.7752   59.9524 H       1  UNL         0.0431
     54 H         -11.4697   -1.3602   58.2724 H       1  UNL         0.0431
     55 H         -10.6300   -4.9306   57.4109 H       1  UNL         0.0431
     56 H         -10.6451   -3.3077   56.7162 H       1  UNL         0.0431
     57 H         -13.0391   -5.0185   57.5515 H       1  UNL         0.0288
     58 H         -12.6187   -4.5399   55.9126 H       1  UNL         0.0288
     59 H          -9.1384   -2.5554   58.5821 H       1  UNL         0.0455
     60 H          -9.1845   -4.2275   59.1615 H       1  UNL         0.0455
     61 H          -8.7088   -3.2921   61.1776 H       1  UNL         0.0586
     62 H         -10.4698   -2.9867   61.2519 H       1  UNL         0.0586
     63 H          -7.8647   -1.7087   62.9445 H       1  UNL         0.0651
     64 H          -7.9432   -0.2393   64.9219 H       1  UNL         0.0638
     65 H         -10.8511    2.2784   62.9578 H       1  UNL         0.0653
     66 H         -15.2035   -3.1591   53.5799 H       1  UNL         0.0433
     67 H         -16.0337   -2.6581   55.0780 H       1  UNL         0.0433
     68 H         -14.7575   -3.9150   55.1093 H       1  UNL         0.0433
     69 H         -12.2612   -5.2505   53.1280 H       1  UNL         0.0535
     70 H         -10.6924   -4.5199   53.5460 H       1  UNL         0.0535
     71 H         -11.2875   -4.4684   51.8597 H       1  UNL         0.0535
@<TRIPOS>BOND
     1     1     2   ar
     2     1     6   ar
     3     1    39    1
     4     2     3   ar
     5     2    40    1
     6     3     4   ar
     7     3    37    1
     8     4     5   ar
     9     4     7    1
    10     5     6   ar
    11     5    41    1
    12     6    42    1
    13     7     8    1
    14     7    15    1
    15     7    43    1
    16     8     9   ar
    17     8    13   ar
    18     9    10   ar
    19     9    14    1
    20    10    11   ar
    21    10    44    1
    22    11    12   ar
    23    11    45    1
    24    12    13   ar
    25    12    46    1
    26    14    47    1
    27    14    48    1
    28    14    49    1
    29    15    16   am
    30    15    36    1
    31    16    17    2
    32    16    18    1
    33    18    19    1
    34    18    23    1
    35    18    50    1
    36    19    20    1
    37    19    51    1
    38    19    52    1
    39    20    21    1
    40    20    53    1
    41    20    54    1
    42    21    22    1
    43    21    24    1
    44    22    23    1
    45    22    55    1
    46    22    56    1
    47    23    57    1
    48    23    58    1
    49    24    25    1
    50    24    59    1
    51    24    60    1
    52    25    26    1
    53    25    61    1
    54    25    62    1
    55    26    27    1
    56    27    28   ar
    57    27    32   ar
    58    28    29   ar
    59    28    63    1
    60    29    30   ar
    61    29    64    1
    62    30    31   ar
    63    30    34    1
    64    31    32   ar
    65    31    65    1
    66    32    33    1
    67    34    35    3
    68    36    66    1
    69    36    67    1
    70    36    68    1
    71    37    38    1
    72    38    69    1
    73    38    70    1
    74    38    71    1
@<TRIPOS>SUBSTRUCTURE
     1 UNL         1 TEMP              0 ****  ****    0 ROOT


##########                                Name:    ZINC000967287417
##########                DOCK_Rotatable_Bonds:                   7
##########                         Heavy_Atoms:                  25
##########                    Molecular_Weight:             347.414
##########                DOCK_Rotatable_Bonds:                   7
##########                       Formal_Charge:          -0.0200002
##########                     HBond_Acceptors:                   7
##########                        HBond_Donors:                   1
##########                         Heavy_Atoms:                  25
##########                          Grid_Score:          -38.878242
##########                     Grid_vdw_energy:          -37.979050
##########                      Grid_es_energy:           -0.899192
##########           Internal_energy_repulsive:           11.301960

@<TRIPOS>MOLECULE
ZINC000967287417
 50 52 1 0 0
SMALL
USER_CHARGES


@<TRIPOS>ATOM
      1 C1         -7.5736    1.9376   50.9442 C.3     1  ZINC000967287417    0.0300
      2 O2         -7.0442    0.7114   50.4359 O.3     1  ZINC000967287417   -0.3900
      3 C3         -6.8303   -0.2877   51.4349 C.3     1  ZINC000967287417    0.1400
      4 C4         -8.1353   -0.5995   52.1210 C.2     1  ZINC000967287417    0.0100
      5 C5         -8.6670    0.0926   53.1527 C.2     1  ZINC000967287417   -0.1900
      6 C6         -9.8807   -0.5292   53.4854 C.2     1  ZINC000967287417   -0.1200
      7 C7        -10.0299   -1.5823   52.6292 C.2     1  ZINC000967287417   -0.0700
      8 C8        -11.1564   -2.5210   52.6057 C.2     1  ZINC000967287417    0.6100
      9 O9        -11.2445   -3.3436   51.7132 O.2     1  ZINC000967287417   -0.5200
     10 N10       -12.0943   -2.4725   53.5723 N.am    1  ZINC000967287417   -0.7000
     11 C11       -13.2187   -3.4114   53.5498 C.3     1  ZINC000967287417    0.1600
     12 H12       -13.2796   -3.8828   52.5689 H       1  ZINC000967287417    0.1000
     13 C13       -13.0095   -4.4849   54.6203 C.3     1  ZINC000967287417    0.0400
     14 N14       -12.9474   -3.8523   55.9441 N.3     1  ZINC000967287417   -0.5300
     15 C15       -12.6095   -4.8354   56.9820 C.3     1  ZINC000967287417    0.1300
     16 C16       -11.3223   -4.4333   57.6546 C.2     1  ZINC000967287417    0.0200
     17 N17       -10.2673   -5.1762   57.8271 N.2     1  ZINC000967287417   -0.3500
     18 O18        -9.3887   -4.5755   58.4011 O.3     1  ZINC000967287417    0.1000
     19 C19        -9.7585   -3.3203   58.6915 C.2     1  ZINC000967287417   -0.0300
     20 C20        -8.9324   -2.2773   59.3993 C.3     1  ZINC000967287417   -0.0800
     21 C21       -11.0188   -3.1726   58.2179 C.2     1  ZINC000967287417   -0.2400
     22 C22       -14.2039   -3.1620   56.2621 C.3     1  ZINC000967287417    0.0500
     23 C23       -14.4488   -2.0491   55.2407 C.3     1  ZINC000967287417   -0.1100
     24 C24       -14.5202   -2.6574   53.8365 C.3     1  ZINC000967287417   -0.1000
     25 H25       -15.3613   -3.3485   53.7812 H       1  ZINC000967287417    0.0900
     26 C26       -14.7058   -1.5426   52.8050 C.3     1  ZINC000967287417   -0.1500
     27 O27        -8.9621   -1.6047   51.8049 O.3     1  ZINC000967287417   -0.1600
     28 H28        -6.8820    2.3566   51.6752 H       1  ZINC000967287417    0.0500
     29 H29        -7.7071    2.6433   50.1242 H       1  ZINC000967287417    0.0900
     30 H30        -8.5353    1.7483   51.4209 H       1  ZINC000967287417    0.0500
     31 H31        -6.4407   -1.1918   50.9671 H       1  ZINC000967287417    0.0900
     32 H32        -6.1129    0.0799   52.1686 H       1  ZINC000967287417    0.0700
     33 H33        -8.2387    0.9607   53.6314 H       1  ZINC000967287417    0.1600
     34 H34       -10.5641   -0.2322   54.2673 H       1  ZINC000967287417    0.1600
     35 H35       -12.0248   -1.8160   54.2830 H       1  ZINC000967287417    0.4100
     36 H36       -13.8395   -5.1910   54.5938 H       1  ZINC000967287417    0.0500
     37 H37       -12.0764   -5.0141   54.4266 H       1  ZINC000967287417    0.0900
     38 H38       -13.4095   -4.8729   57.7213 H       1  ZINC000967287417    0.0600
     39 H39       -12.4895   -5.8183   56.5262 H       1  ZINC000967287417    0.0900
     40 H40        -7.9586   -2.6957   59.6530 H       1  ZINC000967287417    0.0800
     41 H41        -8.7985   -1.4151   58.7459 H       1  ZINC000967287417    0.0900
     42 H42        -9.4431   -1.9666   60.3108 H       1  ZINC000967287417    0.0900
     43 H43       -11.6488   -2.2965   58.2655 H       1  ZINC000967287417    0.1700
     44 H44       -15.0283   -3.8743   56.2279 H       1  ZINC000967287417    0.0400
     45 H45       -14.1384   -2.7304   57.2609 H       1  ZINC000967287417    0.0800
     46 H46       -15.3893   -1.5471   55.4678 H       1  ZINC000967287417    0.0700
     47 H47       -13.6316   -1.3291   55.2841 H       1  ZINC000967287417    0.0700
     48 H48       -13.8631   -0.8533   52.8595 H       1  ZINC000967287417    0.0600
     49 H49       -14.7564   -1.9763   51.8064 H       1  ZINC000967287417    0.0600
     50 H50       -15.6299   -1.0040   53.0146 H       1  ZINC000967287417    0.0600
@<TRIPOS>BOND
     1     1     2    1
     2     1    28    1
     3     1    29    1
     4     1    30    1
     5     2     3    1
     6     3     4    1
     7     3    31    1
     8     3    32    1
     9     4    27    1
    10     4     5    2
    11     5     6    1
    12     5    33    1
    13     6     7    2
    14     6    34    1
    15     7     8    1
    16     7    27    1
    17     8     9    2
    18     8    10   am
    19    10    11    1
    20    10    35    1
    21    11    12    1
    22    11    24    1
    23    11    13    1
    24    13    14    1
    25    13    36    1
    26    13    37    1
    27    14    15    1
    28    14    22    1
    29    15    16    1
    30    15    38    1
    31    15    39    1
    32    16    21    1
    33    16    17    2
    34    17    18    1
    35    18    19    1
    36    19    20    1
    37    19    21    2
    38    20    40    1
    39    20    41    1
    40    20    42    1
    41    21    43    1
    42    22    23    1
    43    22    44    1
    44    22    45    1
    45    23    24    1
    46    23    46    1
    47    23    47    1
    48    24    25    1
    49    24    26    1
    50    26    48    1
    51    26    49    1
    52    26    50    1
@<TRIPOS>SUBSTRUCTURE
     1 ZINC000967287417        1 TEMP              0 ****  ****    0 ROOT


##########                                Name:    ZINC000746432885
##########                DOCK_Rotatable_Bonds:                  11
##########                         Heavy_Atoms:                  31
##########                    Molecular_Weight:              419.44
##########                DOCK_Rotatable_Bonds:                  11
##########                       Formal_Charge:           0.0199995
##########                     HBond_Acceptors:                   9
##########                        HBond_Donors:                   2
##########                         Heavy_Atoms:                  31
##########                          Grid_Score:          -38.871029
##########                     Grid_vdw_energy:          -38.005272
##########                      Grid_es_energy:           -0.865758
##########           Internal_energy_repulsive:           15.967325

@<TRIPOS>MOLECULE
ZINC000746432885
 52 54 1 0 0
SMALL
USER_CHARGES


@<TRIPOS>ATOM
      1 C1        -12.9532   -1.7511   53.4935 C.3     1  ZINC000746432885    0.0300
      2 O2        -11.8321   -0.8677   53.4248 O.3     1  ZINC000746432885   -0.3200
      3 C3        -11.1473   -0.6491   54.5782 C.ar    1  ZINC000746432885    0.1300
      4 C4        -10.4636    0.5435   54.7649 C.ar    1  ZINC000746432885   -0.2000
      5 C5         -9.7682    0.7633   55.9381 C.ar    1  ZINC000746432885   -0.0800
      6 C6         -9.7528   -0.2043   56.9257 C.ar    1  ZINC000746432885   -0.1400
      7 C7        -10.4334   -1.3937   56.7419 C.ar    1  ZINC000746432885   -0.0600
      8 C8        -10.4150   -2.4461   57.8205 C.3     1  ZINC000746432885    0.2300
      9 N9        -10.3766   -1.7984   59.1341 N.am    1  ZINC000746432885   -0.6900
     10 C10        -9.5017   -2.2206   60.0683 C.2     1  ZINC000746432885    0.5200
     11 O11        -8.7446   -3.1364   59.8209 O.2     1  ZINC000746432885   -0.5100
     12 C12        -9.4638   -1.5618   61.4077 C.2     1  ZINC000746432885    0.5100
     13 O13        -8.7773   -2.0274   62.2941 O.2     1  ZINC000746432885   -0.5100
     14 N14       -10.1918   -0.4500   61.6327 N.am    1  ZINC000746432885   -0.6100
     15 C15       -10.1550    0.1708   62.8923 C.2     1  ZINC000746432885    0.0000
     16 C16        -9.0390    0.5714   63.5553 C.2     1  ZINC000746432885    0.0400
     17 N17        -9.4330    1.1205   64.7267 N.pl3   1  ZINC000746432885   -0.3800
     18 C18        -8.5522    1.6841   65.7526 C.3     1  ZINC000746432885    0.2500
     19 C19        -8.0535    0.6035   66.6189 C.1     1  ZINC000746432885    0.1900
     20 N20        -7.6689   -0.2305   67.2874 N.1     1  ZINC000746432885   -0.3900
     21 N21       -10.8308    1.0561   64.7866 N.2     1  ZINC000746432885   -0.2800
     22 C22       -11.2650    0.4936   63.6881 C.2     1  ZINC000746432885    0.0700
     23 C23       -11.6556   -3.2951   57.7151 C.ar    1  ZINC000746432885   -0.0500
     24 C24       -11.5645   -4.5981   57.2619 C.ar    1  ZINC000746432885   -0.1500
     25 C25       -12.7009   -5.3797   57.1645 C.ar    1  ZINC000746432885   -0.0700
     26 C26       -13.9305   -4.8602   57.5200 C.ar    1  ZINC000746432885   -0.2000
     27 C27       -14.0246   -3.5531   57.9750 C.ar    1  ZINC000746432885    0.1300
     28 O28       -15.2332   -3.0396   58.3254 O.3     1  ZINC000746432885   -0.3200
     29 C29       -15.6512   -3.2300   59.6785 C.3     1  ZINC000746432885    0.0300
     30 C30       -12.8822   -2.7725   58.0768 C.ar    1  ZINC000746432885   -0.1300
     31 C31       -11.1354   -1.6158   55.5731 C.ar    1  ZINC000746432885   -0.1300
     32 H32       -13.6849   -1.3556   54.1980 H       1  ZINC000746432885    0.0600
     33 H33       -13.4086   -1.8376   52.5069 H       1  ZINC000746432885    0.1000
     34 H34       -12.6213   -2.7341   53.8279 H       1  ZINC000746432885    0.0600
     35 H35       -10.4747    1.2994   53.9935 H       1  ZINC000746432885    0.1300
     36 H36        -9.2358    1.6916   56.0840 H       1  ZINC000746432885    0.1300
     37 H37        -9.2080   -0.0310   57.8419 H       1  ZINC000746432885    0.1200
     38 H38        -9.5329   -3.0750   57.6996 H       1  ZINC000746432885    0.1200
     39 H39       -10.9809   -1.0657   59.3315 H       1  ZINC000746432885    0.4200
     40 H40       -10.7413   -0.0786   60.9248 H       1  ZINC000746432885    0.4200
     41 H41        -8.0209    0.4695   63.2095 H       1  ZINC000746432885    0.1900
     42 H42        -7.7100    2.1837   65.2739 H       1  ZINC000746432885    0.1300
     43 H43        -9.1081    2.4040   66.3533 H       1  ZINC000746432885    0.1500
     44 H44       -12.2988    0.3044   63.4396 H       1  ZINC000746432885    0.2100
     45 H45       -10.6041   -5.0060   56.9831 H       1  ZINC000746432885    0.1200
     46 H46       -12.6271   -6.3972   56.8098 H       1  ZINC000746432885    0.1300
     47 H47       -14.8179   -5.4711   57.4434 H       1  ZINC000746432885    0.1300
     48 H48       -16.6300   -2.7728   59.8241 H       1  ZINC000746432885    0.1000
     49 H49       -15.7129   -4.2968   59.8931 H       1  ZINC000746432885    0.0600
     50 H50       -14.9296   -2.7653   60.3505 H       1  ZINC000746432885    0.0600
     51 H51       -12.9528   -1.7547   58.4309 H       1  ZINC000746432885    0.1400
     52 H52       -11.6668   -2.5450   55.4300 H       1  ZINC000746432885    0.1300
@<TRIPOS>BOND
     1     1     2    1
     2     1    32    1
     3     1    33    1
     4     1    34    1
     5     2     3    1
     6     3    31   ar
     7     3     4   ar
     8     4     5   ar
     9     4    35    1
    10     5     6   ar
    11     5    36    1
    12     6     7   ar
    13     6    37    1
    14     7     8    1
    15     7    31   ar
    16     8     9    1
    17     8    23    1
    18     8    38    1
    19     9    10   am
    20     9    39    1
    21    10    11    2
    22    10    12    1
    23    12    13    2
    24    12    14   am
    25    14    15    1
    26    14    40    1
    27    15    22    1
    28    15    16    2
    29    16    17    1
    30    16    41    1
    31    17    18    1
    32    17    21    1
    33    18    19    1
    34    18    42    1
    35    18    43    1
    36    19    20    3
    37    21    22    2
    38    22    44    1
    39    23    30   ar
    40    23    24   ar
    41    24    25   ar
    42    24    45    1
    43    25    26   ar
    44    25    46    1
    45    26    27   ar
    46    26    47    1
    47    27    28    1
    48    27    30   ar
    49    28    29    1
    50    29    48    1
    51    29    49    1
    52    29    50    1
    53    30    51    1
    54    31    52    1
@<TRIPOS>SUBSTRUCTURE
     1 ZINC000746432885        1 TEMP              0 ****  ****    0 ROOT


##########                                Name:    ZINC000506566356
##########                DOCK_Rotatable_Bonds:                  10
##########                         Heavy_Atoms:                  28
##########                    Molecular_Weight:               415.9
##########                DOCK_Rotatable_Bonds:                  10
##########                       Formal_Charge:           0.0199998
##########                     HBond_Acceptors:                   8
##########                        HBond_Donors:                   2
##########                         Heavy_Atoms:                  28
##########                          Grid_Score:          -38.837803
##########                     Grid_vdw_energy:          -37.847027
##########                      Grid_es_energy:           -0.990775
##########           Internal_energy_repulsive:            5.886634

@<TRIPOS>MOLECULE
ZINC000506566356
 46 48 1 0 0
SMALL
USER_CHARGES


@<TRIPOS>ATOM
      1 O1         -9.5989   -5.0037   58.9612 O.2     1  ZINC000506566356   -0.5100
      2 C2        -10.1781   -3.9372   58.9705 C.2     1  ZINC000506566356    0.5100
      3 N3        -10.8882   -3.5466   57.8937 N.am    1  ZINC000506566356   -0.7000
      4 C4        -10.9559   -4.4065   56.7096 C.3     1  ZINC000506566356    0.1200
      5 C5        -12.1336   -3.9756   55.8330 C.3     1  ZINC000506566356   -0.0900
      6 C6        -11.6318   -3.1046   54.7103 C.ar    1  ZINC000506566356   -0.0700
      7 C7        -11.7426   -3.5332   53.4009 C.ar    1  ZINC000506566356   -0.1100
      8 C8        -11.2830   -2.7345   52.3702 C.ar    1  ZINC000506566356   -0.1000
      9 C9        -10.7119   -1.5073   52.6486 C.ar    1  ZINC000506566356   -0.1100
     10 C10       -10.6007   -1.0777   53.9593 C.ar    1  ZINC000506566356   -0.0300
     11 Cl11       -9.8840    0.4641   54.3098 Cl      1  ZINC000506566356   -0.0700
     12 C12       -11.0660   -1.8747   54.9896 C.ar    1  ZINC000506566356   -0.1000
     13 C13       -10.1091   -3.0605   60.1775 C.2     1  ZINC000506566356    0.5100
     14 O14        -9.8677   -3.5429   61.2650 O.2     1  ZINC000506566356   -0.5000
     15 N15       -10.3147   -1.7338   60.0595 N.am    1  ZINC000506566356   -0.6300
     16 C16       -10.2500   -0.9126   61.1900 C.ar    1  ZINC000506566356    0.1100
     17 C17        -9.0706   -0.8182   61.9148 C.ar    1  ZINC000506566356   -0.0800
     18 C18        -9.0094   -0.0062   63.0315 C.ar    1  ZINC000506566356   -0.1400
     19 C19       -10.1210    0.7132   63.4293 C.ar    1  ZINC000506566356   -0.0900
     20 C20       -11.3002    0.6241   62.7126 C.ar    1  ZINC000506566356   -0.1900
     21 C21       -11.3687   -0.1824   61.5886 C.ar    1  ZINC000506566356    0.1200
     22 O22       -12.5274   -0.2712   60.8829 O.3     1  ZINC000506566356   -0.3100
     23 C23       -13.6777   -0.7510   61.5820 C.3     1  ZINC000506566356    0.1400
     24 C24       -14.5354   -1.5592   60.6428 C.2     1  ZINC000506566356    0.0500
     25 C25       -15.1162   -1.0330   59.5604 C.2     1  ZINC000506566356   -0.2300
     26 S26       -16.0178   -2.3131   58.7524 S.3     1  ZINC000506566356    0.1400
     27 C27       -15.5241   -3.4286   59.9504 C.2     1  ZINC000506566356    0.0200
     28 N28       -14.7697   -2.8441   60.8187 N.2     1  ZINC000506566356   -0.4700
     29 H29       -11.3543   -2.6959   57.9026 H       1  ZINC000506566356    0.4200
     30 H30       -10.0293   -4.3178   56.1426 H       1  ZINC000506566356    0.0800
     31 H31       -11.0941   -5.4422   57.0202 H       1  ZINC000506566356    0.0800
     32 H32       -12.6200   -4.8586   55.4183 H       1  ZINC000506566356    0.0900
     33 H33       -12.8491   -3.4158   56.4353 H       1  ZINC000506566356    0.0900
     34 H34       -12.1882   -4.4926   53.1828 H       1  ZINC000506566356    0.1300
     35 H35       -11.3699   -3.0699   51.3473 H       1  ZINC000506566356    0.1300
     36 H36       -10.3522   -0.8838   51.8435 H       1  ZINC000506566356    0.1300
     37 H37       -10.9794   -1.5399   56.0128 H       1  ZINC000506566356    0.1300
     38 H38       -10.5075   -1.3483   59.1904 H       1  ZINC000506566356    0.4300
     39 H39        -8.2008   -1.3792   61.6065 H       1  ZINC000506566356    0.1500
     40 H40        -8.0909    0.0663   63.5950 H       1  ZINC000506566356    0.1300
     41 H41       -10.0683    1.3465   64.3026 H       1  ZINC000506566356    0.1300
     42 H42       -12.1668    1.1870   63.0267 H       1  ZINC000506566356    0.1400
     43 H43       -13.3609   -1.3781   62.4154 H       1  ZINC000506566356    0.0900
     44 H44       -14.2514    0.0947   61.9612 H       1  ZINC000506566356    0.0900
     45 H45       -15.0455   -0.0048   59.2379 H       1  ZINC000506566356    0.1800
     46 H46       -15.8000   -4.4726   59.9743 H       1  ZINC000506566356    0.2100
@<TRIPOS>BOND
     1     1     2    2
     2     2     3   am
     3     2    13    1
     4     3     4    1
     5     3    29    1
     6     4     5    1
     7     4    30    1
     8     4    31    1
     9     5     6    1
    10     5    32    1
    11     5    33    1
    12     6    12   ar
    13     6     7   ar
    14     7     8   ar
    15     7    34    1
    16     8     9   ar
    17     8    35    1
    18     9    10   ar
    19     9    36    1
    20    10    11    1
    21    10    12   ar
    22    12    37    1
    23    13    14    2
    24    13    15   am
    25    15    16    1
    26    15    38    1
    27    16    21   ar
    28    16    17   ar
    29    17    18   ar
    30    17    39    1
    31    18    19   ar
    32    18    40    1
    33    19    20   ar
    34    19    41    1
    35    20    21   ar
    36    20    42    1
    37    21    22    1
    38    22    23    1
    39    23    24    1
    40    23    43    1
    41    23    44    1
    42    24    28    1
    43    24    25    2
    44    25    26    1
    45    25    45    1
    46    26    27    1
    47    27    28    2
    48    27    46    1
@<TRIPOS>SUBSTRUCTURE
     1 ZINC000506566356        1 TEMP              0 ****  ****    0 ROOT


##########                                Name:    ZINC000489986384
##########                DOCK_Rotatable_Bonds:                  11
##########                         Heavy_Atoms:                  31
##########                    Molecular_Weight:             415.492
##########                DOCK_Rotatable_Bonds:                  11
##########                       Formal_Charge:          -0.0499997
##########                     HBond_Acceptors:                   6
##########                        HBond_Donors:                   2
##########                         Heavy_Atoms:                  31
##########                          Grid_Score:          -38.834679
##########                     Grid_vdw_energy:          -36.869289
##########                      Grid_es_energy:           -1.965390
##########           Internal_energy_repulsive:           15.515019

@<TRIPOS>MOLECULE
ZINC000489986384
 56 59 1 0 0
SMALL
USER_CHARGES


@<TRIPOS>ATOM
      1 O1        -14.4539   -2.9033   60.6033 O.2     1  ZINC000489986384   -0.5000
      2 C2        -14.1021   -1.9291   59.9723 C.2     1  ZINC000489986384    0.4900
      3 C3        -13.8693   -2.0370   58.4873 C.3     1  ZINC000489986384    0.0900
      4 N4        -12.8166   -3.0223   58.2283 N.pl3   1  ZINC000489986384   -0.4700
      5 C5        -11.5089   -2.9569   58.6661 C.ar    1  ZINC000489986384    0.0700
      6 C6        -10.7875   -2.0444   59.4232 C.ar    1  ZINC000489986384   -0.1100
      7 C7         -9.4554   -2.2804   59.6903 C.ar    1  ZINC000489986384   -0.0900
      8 C8         -8.8330   -3.4224   59.2073 C.ar    1  ZINC000489986384   -0.1300
      9 C9         -9.5273   -4.3314   58.4599 C.ar    1  ZINC000489986384   -0.0600
     10 C10       -10.8780   -4.1137   58.1773 C.ar    1  ZINC000489986384    0.0500
     11 N11       -11.8132   -4.8099   57.4813 N.2     1  ZINC000489986384   -0.4600
     12 C12       -12.9479   -4.1744   57.5169 C.2     1  ZINC000489986384    0.2800
     13 C13       -14.2197   -4.6409   56.8565 C.3     1  ZINC000489986384    0.1400
     14 O14       -14.5227   -3.7881   55.7506 O.3     1  ZINC000489986384   -0.3000
     15 C15       -13.5780   -3.6772   54.7800 C.ar    1  ZINC000489986384    0.1300
     16 C16       -13.1736   -2.4239   54.3440 C.ar    1  ZINC000489986384   -0.2100
     17 C17       -12.2127   -2.3138   53.3575 C.ar    1  ZINC000489986384   -0.0800
     18 C18       -11.6545   -3.4515   52.8045 C.ar    1  ZINC000489986384   -0.1600
     19 C19       -12.0563   -4.7018   53.2369 C.ar    1  ZINC000489986384   -0.0800
     20 C20       -13.0124   -4.8171   54.2275 C.ar    1  ZINC000489986384   -0.1500
     21 N21       -13.9248   -0.7487   60.5982 N.am    1  ZINC000489986384   -0.7300
     22 C22       -14.1510   -0.6439   62.0418 C.3     1  ZINC000489986384    0.1300
     23 C23       -13.4354    0.5960   62.5814 C.3     1  ZINC000489986384   -0.0600
     24 H24       -12.3807    0.5544   62.3090 H       1  ZINC000489986384    0.0900
     25 C25       -14.0682    1.8524   61.9800 C.3     1  ZINC000489986384    0.0800
     26 O26       -15.4351    1.9392   62.3877 O.3     1  ZINC000489986384   -0.5700
     27 C27       -13.5651    0.6375   64.0823 C.ar    1  ZINC000489986384   -0.0700
     28 C28       -12.5531    1.1847   64.8486 C.ar    1  ZINC000489986384   -0.1100
     29 C29       -12.6721    1.2228   66.2253 C.ar    1  ZINC000489986384   -0.1200
     30 C30       -13.8032    0.7139   66.8356 C.ar    1  ZINC000489986384   -0.1200
     31 C31       -14.8156    0.1675   66.0693 C.ar    1  ZINC000489986384   -0.1200
     32 C32       -14.6986    0.1333   64.6923 C.ar    1  ZINC000489986384   -0.1100
     33 H33       -14.7905   -2.3521   57.9970 H       1  ZINC000489986384    0.1200
     34 H34       -13.5631   -1.0668   58.0961 H       1  ZINC000489986384    0.1200
     35 H35       -11.2670   -1.1536   59.8011 H       1  ZINC000489986384    0.1200
     36 H36        -8.8928   -1.5713   60.2793 H       1  ZINC000489986384    0.1300
     37 H37        -7.7890   -3.5943   59.4238 H       1  ZINC000489986384    0.1300
     38 H38        -9.0327   -5.2166   58.0881 H       1  ZINC000489986384    0.1300
     39 H39       -14.0911   -5.6636   56.5021 H       1  ZINC000489986384    0.0800
     40 H40       -15.0371   -4.6060   57.5767 H       1  ZINC000489986384    0.1000
     41 H41       -13.6097   -1.5349   54.7752 H       1  ZINC000489986384    0.1300
     42 H42       -11.8975   -1.3383   53.0178 H       1  ZINC000489986384    0.1300
     43 H43       -10.9037   -3.3633   52.0332 H       1  ZINC000489986384    0.1200
     44 H44       -11.6190   -5.5890   52.8032 H       1  ZINC000489986384    0.1300
     45 H45       -13.3258   -5.7940   54.5650 H       1  ZINC000489986384    0.1300
     46 H46       -13.6472    0.0313   60.0928 H       1  ZINC000489986384    0.4000
     47 H47       -15.2201   -0.5601   62.2369 H       1  ZINC000489986384    0.0800
     48 H48       -13.7601   -1.5331   62.5364 H       1  ZINC000489986384    0.0800
     49 H49       -13.5287    2.7333   62.3279 H       1  ZINC000489986384    0.0500
     50 H50       -14.0161    1.8005   60.8925 H       1  ZINC000489986384    0.0500
     51 H51       -15.5574    1.9888   63.3457 H       1  ZINC000489986384    0.3800
     52 H52       -11.6694    1.5822   64.3718 H       1  ZINC000489986384    0.1200
     53 H53       -11.8811    1.6497   66.8240 H       1  ZINC000489986384    0.1200
     54 H54       -13.8958    0.7430   67.9113 H       1  ZINC000489986384    0.1200
     55 H55       -15.6992   -0.2303   66.5461 H       1  ZINC000489986384    0.1200
     56 H56       -15.4895   -0.2936   64.0935 H       1  ZINC000489986384    0.1200
@<TRIPOS>BOND
     1     1     2    2
     2     2     3    1
     3     2    21   am
     4     3     4    1
     5     3    33    1
     6     3    34    1
     7     4    12    1
     8     4     5    1
     9     5    10   ar
    10     5     6   ar
    11     6     7   ar
    12     6    35    1
    13     7     8   ar
    14     7    36    1
    15     8     9   ar
    16     8    37    1
    17     9    10   ar
    18     9    38    1
    19    10    11    1
    20    11    12    2
    21    12    13    1
    22    13    14    1
    23    13    39    1
    24    13    40    1
    25    14    15    1
    26    15    20   ar
    27    15    16   ar
    28    16    17   ar
    29    16    41    1
    30    17    18   ar
    31    17    42    1
    32    18    19   ar
    33    18    43    1
    34    19    20   ar
    35    19    44    1
    36    20    45    1
    37    21    22    1
    38    21    46    1
    39    22    23    1
    40    22    47    1
    41    22    48    1
    42    23    24    1
    43    23    25    1
    44    23    27    1
    45    25    26    1
    46    25    49    1
    47    25    50    1
    48    26    51    1
    49    27    32   ar
    50    27    28   ar
    51    28    29   ar
    52    28    52    1
    53    29    30   ar
    54    29    53    1
    55    30    31   ar
    56    30    54    1
    57    31    32   ar
    58    31    55    1
    59    32    56    1
@<TRIPOS>SUBSTRUCTURE
     1 ZINC000489986384        1 TEMP              0 ****  ****    0 ROOT


##########                                Name:    ZINC000474251633
##########                DOCK_Rotatable_Bonds:                   8
##########                         Heavy_Atoms:                  28
##########                    Molecular_Weight:             416.931
##########                DOCK_Rotatable_Bonds:                   8
##########                       Formal_Charge:          0.00999953
##########                     HBond_Acceptors:                   8
##########                        HBond_Donors:                   2
##########                         Heavy_Atoms:                  28
##########                          Grid_Score:          -38.795284
##########                     Grid_vdw_energy:          -37.568844
##########                      Grid_es_energy:           -1.226439
##########           Internal_energy_repulsive:            8.642094

@<TRIPOS>MOLECULE
ZINC000474251633
 49 52 1 0 0
SMALL
USER_CHARGES


@<TRIPOS>ATOM
      1 O1        -11.9618   -4.7750   53.0391 O.2     1  ZINC000474251633   -0.5300
      2 C2        -12.1544   -3.8902   53.8460 C.2     1  ZINC000474251633    0.5100
      3 C3        -13.0269   -4.1437   55.0483 C.3     1  ZINC000474251633    0.1000
      4 N4        -12.5673   -3.3182   56.1679 N.am    1  ZINC000474251633   -0.7100
      5 C5        -11.9987   -3.8978   57.2436 C.2     1  ZINC000474251633    0.5900
      6 O6        -11.8655   -5.1065   57.2842 O.2     1  ZINC000474251633   -0.5000
      7 C7        -11.5397   -3.0705   58.3665 C.2     1  ZINC000474251633   -0.2300
      8 C8        -10.3846   -3.2464   59.0191 C.2     1  ZINC000474251633    0.0400
      9 Cl9        -9.2668   -4.5069   58.6001 Cl      1  ZINC000474251633   -0.0100
     10 C10       -10.1368   -2.3420   60.0661 C.ar    1  ZINC000474251633   -0.0900
     11 C11        -9.0191   -2.2699   60.9307 C.ar    1  ZINC000474251633   -0.0600
     12 C12        -8.9542   -1.3149   61.8963 C.ar    1  ZINC000474251633   -0.1200
     13 C13        -9.9819   -0.3933   62.0523 C.ar    1  ZINC000474251633   -0.0800
     14 C14       -11.0808   -0.4379   61.2282 C.ar    1  ZINC000474251633   -0.0900
     15 C15       -11.1703   -1.4106   60.2273 C.ar    1  ZINC000474251633   -0.1200
     16 S16       -12.4269   -1.7109   59.0323 S.3     1  ZINC000474251633    0.1700
     17 N17       -11.5836   -2.6820   53.6703 N.am    1  ZINC000474251633   -0.7200
     18 C18       -10.7355   -2.4356   52.5015 C.3     1  ZINC000474251633    0.2100
     19 C19        -9.8033   -1.2872   52.7904 C.2     1  ZINC000474251633    0.0500
     20 N20       -10.0221   -0.3165   53.6397 N.2     1  ZINC000474251633   -0.2700
     21 N21        -8.9177    0.5450   53.6138 N.pl3   1  ZINC000474251633   -0.3600
     22 C22        -8.7539    1.7608   54.4147 C.3     1  ZINC000474251633    0.1500
     23 C23       -10.1321    2.3863   54.7133 C.3     1  ZINC000474251633   -0.1400
     24 C24       -10.5025    1.8384   56.1139 C.3     1  ZINC000474251633   -0.1300
     25 C25        -9.1415    1.8421   56.8533 C.3     1  ZINC000474251633   -0.1200
     26 C26        -8.1241    1.4147   55.7754 C.3     1  ZINC000474251633   -0.1400
     27 C27        -8.0314    0.0571   52.7209 C.2     1  ZINC000474251633    0.0600
     28 C28        -8.5520   -1.0786   52.2012 C.2     1  ZINC000474251633   -0.2600
     29 H29       -14.0592   -3.8885   54.8085 H       1  ZINC000474251633    0.1100
     30 H30       -12.9677   -5.1964   55.3248 H       1  ZINC000474251633    0.1100
     31 H31       -12.6724   -2.3545   56.1351 H       1  ZINC000474251633    0.4100
     32 H32        -8.2117   -2.9789   60.8230 H       1  ZINC000474251633    0.1300
     33 H33        -8.0948   -1.2725   62.5491 H       1  ZINC000474251633    0.1400
     34 H34        -9.9173    0.3600   62.8235 H       1  ZINC000474251633    0.1400
     35 H35       -11.8776    0.2804   61.3538 H       1  ZINC000474251633    0.1400
     36 H36       -11.7345   -1.9756   54.3177 H       1  ZINC000474251633    0.4100
     37 H37       -10.1528   -3.3298   52.2804 H       1  ZINC000474251633    0.0900
     38 H38       -11.3614   -2.1885   51.6440 H       1  ZINC000474251633    0.0900
     39 H39        -8.1257    2.4757   53.8835 H       1  ZINC000474251633    0.1100
     40 H40       -10.0606    3.4738   54.7357 H       1  ZINC000474251633    0.0900
     41 H41       -10.8649    2.0665   53.9725 H       1  ZINC000474251633    0.0800
     42 H42       -11.2140    2.4979   56.6109 H       1  ZINC000474251633    0.0800
     43 H43       -10.8992    0.8259   56.0400 H       1  ZINC000474251633    0.0700
     44 H44        -8.9101    2.8416   57.2214 H       1  ZINC000474251633    0.0700
     45 H45        -9.1514    1.1251   57.6742 H       1  ZINC000474251633    0.0700
     46 H46        -7.9403    0.3423   55.8397 H       1  ZINC000474251633    0.0700
     47 H47        -7.1907    1.9624   55.9048 H       1  ZINC000474251633    0.0800
     48 H48        -7.0755    0.4927   52.4693 H       1  ZINC000474251633    0.1700
     49 H49        -8.0864   -1.7092   51.4582 H       1  ZINC000474251633    0.1500
@<TRIPOS>BOND
     1     1     2    2
     2     2     3    1
     3     2    17   am
     4     3     4    1
     5     3    29    1
     6     3    30    1
     7     4     5   am
     8     4    31    1
     9     5     6    2
    10     5     7    1
    11     7    16    1
    12     7     8    2
    13     8     9    1
    14     8    10    1
    15    10    15   ar
    16    10    11   ar
    17    11    12   ar
    18    11    32    1
    19    12    13   ar
    20    12    33    1
    21    13    14   ar
    22    13    34    1
    23    14    15   ar
    24    14    35    1
    25    15    16    1
    26    17    18    1
    27    17    36    1
    28    18    19    1
    29    18    37    1
    30    18    38    1
    31    19    28    1
    32    19    20    2
    33    20    21    1
    34    21    22    1
    35    21    27    1
    36    22    26    1
    37    22    23    1
    38    22    39    1
    39    23    24    1
    40    23    40    1
    41    23    41    1
    42    24    25    1
    43    24    42    1
    44    24    43    1
    45    25    26    1
    46    25    44    1
    47    25    45    1
    48    26    46    1
    49    26    47    1
    50    27    28    2
    51    27    48    1
    52    28    49    1
@<TRIPOS>SUBSTRUCTURE
     1 ZINC000474251633        1 TEMP              0 ****  ****    0 ROOT


##########                                Name:    ZINC001090961577
##########                DOCK_Rotatable_Bonds:                   9
##########                         Heavy_Atoms:                  24
##########                    Molecular_Weight:             352.458
##########                DOCK_Rotatable_Bonds:                   9
##########                       Formal_Charge:                0.02
##########                     HBond_Acceptors:                   8
##########                        HBond_Donors:                   1
##########                         Heavy_Atoms:                  24
##########                          Grid_Score:          -38.794216
##########                     Grid_vdw_energy:          -38.780273
##########                      Grid_es_energy:           -0.013941
##########           Internal_energy_repulsive:            9.950629

@<TRIPOS>MOLECULE
ZINC001090961577
 48 49 1 0 0
SMALL
USER_CHARGES


@<TRIPOS>ATOM
      1 C1        -10.2583   -1.7508   60.8064 C.3     1  ZINC001090961577   -0.1400
      2 C2         -8.9774   -2.1224   60.0566 C.3     1  ZINC001090961577   -0.0900
      3 S3         -9.1918   -3.7361   59.2562 S.3     1  ZINC001090961577   -0.2700
      4 C4        -10.5950   -3.4556   58.1415 C.3     1  ZINC001090961577   -0.0700
      5 C5        -10.9564   -4.7646   57.4369 C.3     1  ZINC001090961577   -0.1200
      6 C6        -12.1867   -4.5572   56.5917 C.2     1  ZINC001090961577    0.5400
      7 O7        -13.2816   -4.8275   57.0378 O.2     1  ZINC001090961577   -0.5300
      8 N8        -12.0702   -4.0715   55.3399 N.am    1  ZINC001090961577   -0.6200
      9 C9        -13.1820   -3.8214   54.4109 C.3     1  ZINC001090961577    0.1100
     10 C10       -12.5750   -3.2433   53.1151 C.3     1  ZINC001090961577   -0.1100
     11 H11       -12.4240   -4.0298   52.3757 H       1  ZINC001090961577    0.0900
     12 C12       -13.4640   -2.1342   52.5488 C.3     1  ZINC001090961577   -0.1400
     13 C13       -11.2146   -2.6711   53.5937 C.3     1  ZINC001090961577    0.1500
     14 H14       -11.3387   -1.6786   54.0267 H       1  ZINC001090961577    0.1200
     15 N15       -10.2415   -2.6452   52.4989 N.pl3   1  ZINC001090961577   -0.6700
     16 C16        -9.3404   -1.6058   52.4016 C.ar    1  ZINC001090961577    0.5900
     17 N17        -8.2304   -1.7796   51.6961 N.ar    1  ZINC001090961577   -0.5700
     18 C18        -7.3431   -0.8100   51.5786 C.ar    1  ZINC001090961577    0.2700
     19 C19        -7.5881    0.4157   52.2128 C.ar    1  ZINC001090961577   -0.3000
     20 C20        -6.6250    1.5270   52.1085 C.2     1  ZINC001090961577    0.5300
     21 O21        -6.9493    2.6463   52.4527 O.2     1  ZINC001090961577   -0.5100
     22 O22        -5.3851    1.3016   51.6317 O.3     1  ZINC001090961577   -0.3600
     23 C23        -4.5685    2.4666   51.3413 C.3     1  ZINC001090961577    0.0400
     24 C24        -8.7728    0.5573   52.9482 C.ar    1  ZINC001090961577    0.2600
     25 N25        -9.6114   -0.4593   53.0122 N.ar    1  ZINC001090961577   -0.5700
     26 C26       -10.8074   -3.6968   54.6777 C.3     1  ZINC001090961577    0.0900
     27 H27       -10.1294   -0.7812   61.2874 H       1  ZINC001090961577    0.0700
     28 H28       -11.0893   -1.7000   60.1030 H       1  ZINC001090961577    0.0700
     29 H29       -10.4686   -2.5067   61.5631 H       1  ZINC001090961577    0.0700
     30 H30        -8.7671   -1.3666   59.2999 H       1  ZINC001090961577    0.0800
     31 H31        -8.1464   -2.1734   60.7601 H       1  ZINC001090961577    0.0800
     32 H32       -11.4515   -3.1041   58.7169 H       1  ZINC001090961577    0.0900
     33 H33       -10.3243   -2.7056   57.3981 H       1  ZINC001090961577    0.0900
     34 H34       -10.1274   -5.0763   56.8016 H       1  ZINC001090961577    0.1000
     35 H35       -11.1531   -5.5358   58.1817 H       1  ZINC001090961577    0.1000
     36 H36       -13.7002   -4.7551   54.1931 H       1  ZINC001090961577    0.0800
     37 H37       -13.8757   -3.1031   54.8479 H       1  ZINC001090961577    0.0800
     38 H38       -13.5779   -1.3449   53.2918 H       1  ZINC001090961577    0.0600
     39 H39       -13.0042   -1.7235   51.6499 H       1  ZINC001090961577    0.0600
     40 H40       -14.4431   -2.5442   52.3013 H       1  ZINC001090961577    0.0700
     41 H41       -10.2309   -3.3593   51.8423 H       1  ZINC001090961577    0.4200
     42 H42        -6.4415   -0.9589   51.0029 H       1  ZINC001090961577    0.1800
     43 H43        -3.5973    2.1450   50.9651 H       1  ZINC001090961577    0.1100
     44 H44        -5.0648    3.0797   50.5889 H       1  ZINC001090961577    0.0700
     45 H45        -4.4306    3.0497   52.2518 H       1  ZINC001090961577    0.0700
     46 H46        -8.9978    1.4860   53.4514 H       1  ZINC001090961577    0.1800
     47 H47       -10.1211   -3.2418   55.3919 H       1  ZINC001090961577    0.0900
     48 H48       -10.3515   -4.5738   54.2180 H       1  ZINC001090961577    0.0800
@<TRIPOS>BOND
     1     1     2    1
     2     1    27    1
     3     1    28    1
     4     1    29    1
     5     2     3    1
     6     2    30    1
     7     2    31    1
     8     3     4    1
     9     4     5    1
    10     4    32    1
    11     4    33    1
    12     5     6    1
    13     5    34    1
    14     5    35    1
    15     6     7    2
    16     6     8   am
    17     8    26    1
    18     8     9    1
    19     9    10    1
    20     9    36    1
    21     9    37    1
    22    10    11    1
    23    10    12    1
    24    10    13    1
    25    12    38    1
    26    12    39    1
    27    12    40    1
    28    13    14    1
    29    13    15    1
    30    13    26    1
    31    15    16    1
    32    15    41    1
    33    16    25   ar
    34    16    17   ar
    35    17    18   ar
    36    18    19   ar
    37    18    42    1
    38    19    20    1
    39    19    24   ar
    40    20    21    2
    41    20    22    1
    42    22    23    1
    43    23    43    1
    44    23    44    1
    45    23    45    1
    46    24    25   ar
    47    24    46    1
    48    26    47    1
    49    26    48    1
@<TRIPOS>SUBSTRUCTURE
     1 ZINC001090961577        1 TEMP              0 ****  ****    0 ROOT


##########                                Name:    ZINC000045927156
##########                DOCK_Rotatable_Bonds:                   7
##########                         Heavy_Atoms:                  30
##########                    Molecular_Weight:             418.522
##########                DOCK_Rotatable_Bonds:                   7
##########                       Formal_Charge:           0.0200001
##########                     HBond_Acceptors:                   8
##########                        HBond_Donors:                   1
##########                         Heavy_Atoms:                  30
##########                          Grid_Score:          -38.778721
##########                     Grid_vdw_energy:          -37.321896
##########                      Grid_es_energy:           -1.456826
##########           Internal_energy_repulsive:           14.492699

@<TRIPOS>MOLECULE
ZINC000045927156
 52 56 1 0 0
SMALL
USER_CHARGES


@<TRIPOS>ATOM
      1 O1        -10.5692   -3.3537   54.6013 O.2     1  ZINC000045927156   -0.5800
      2 C2        -11.6313   -2.7934   54.4106 C.2     1  ZINC000045927156    0.7300
      3 N3        -11.7150   -1.7975   53.5063 N.am    1  ZINC000045927156   -0.7400
      4 C4        -10.5250   -1.3862   52.7574 C.3     1  ZINC000045927156    0.1700
      5 C5        -10.6694    0.0534   52.3359 C.ar    1  ZINC000045927156   -0.0700
      6 C6        -11.9192    0.5656   52.0428 C.ar    1  ZINC000045927156   -0.1000
      7 C7        -12.0518    1.8863   51.6561 C.ar    1  ZINC000045927156   -0.1100
      8 C8        -10.9345    2.6946   51.5631 C.ar    1  ZINC000045927156   -0.1100
      9 C9         -9.6844    2.1825   51.8571 C.ar    1  ZINC000045927156   -0.1000
     10 C10        -9.5523    0.8634   52.2478 C.ar    1  ZINC000045927156   -0.1000
     11 C11        -8.1897    0.3051   52.5685 C.3     1  ZINC000045927156    0.1700
     12 N12        -7.1709    1.0423   51.8169 N.pl3   1  ZINC000045927156   -0.3800
     13 C13        -6.4968    2.1305   52.2276 C.2     1  ZINC000045927156    0.2500
     14 N14        -5.6790    2.4867   51.2704 N.2     1  ZINC000045927156   -0.5400
     15 C15        -5.8019    1.6538   50.2377 C.2     1  ZINC000045927156    0.2000
     16 N16        -6.6998    0.7489   50.5267 N.2     1  ZINC000045927156   -0.3100
     17 N17       -12.7261   -3.1718   55.0996 N.am    1  ZINC000045927156   -0.6200
     18 C18       -14.0716   -2.5845   54.9650 C.3     1  ZINC000045927156    0.1000
     19 C19       -15.0392   -3.6969   55.4403 C.3     1  ZINC000045927156   -0.1300
     20 C20       -14.2350   -4.3325   56.6050 C.3     1  ZINC000045927156   -0.1200
     21 C21       -12.7778   -4.2429   56.1054 C.3     1  ZINC000045927156    0.2300
     22 H22       -12.4799   -5.1918   55.6592 H       1  ZINC000045927156    0.1000
     23 C23       -11.8618   -3.9070   57.2540 C.2     1  ZINC000045927156    0.0900
     24 N24       -11.9604   -2.8497   57.9675 N.2     1  ZINC000045927156   -0.4500
     25 C25       -11.0713   -2.6786   58.9645 C.ar    1  ZINC000045927156    0.0800
     26 C26       -10.9498   -1.6235   59.8907 C.ar    1  ZINC000045927156   -0.0700
     27 C27        -9.9665   -1.6428   60.8331 C.ar    1  ZINC000045927156   -0.1100
     28 C28        -9.0680   -2.6980   60.9003 C.ar    1  ZINC000045927156   -0.1000
     29 C29        -9.1628   -3.7426   60.0083 C.ar    1  ZINC000045927156   -0.0700
     30 C30       -10.1620   -3.7399   59.0377 C.ar    1  ZINC000045927156   -0.1800
     31 S31       -10.5681   -4.8927   57.7702 S.3     1  ZINC000045927156    0.1200
     32 H32       -12.5633   -1.3533   53.3513 H       1  ZINC000045927156    0.3900
     33 H33        -9.6432   -1.4932   53.3891 H       1  ZINC000045927156    0.1000
     34 H34       -10.4169   -2.0145   51.8733 H       1  ZINC000045927156    0.0700
     35 H35       -12.7923   -0.0660   52.1155 H       1  ZINC000045927156    0.1300
     36 H36       -13.0282    2.2864   51.4264 H       1  ZINC000045927156    0.1300
     37 H37       -11.0379    3.7261   51.2604 H       1  ZINC000045927156    0.1300
     38 H38        -8.8112    2.8139   51.7841 H       1  ZINC000045927156    0.1300
     39 H39        -7.9976    0.4066   53.6365 H       1  ZINC000045927156    0.1100
     40 H40        -8.1543   -0.7484   52.2913 H       1  ZINC000045927156    0.1000
     41 H41        -6.6108    2.6248   53.1810 H       1  ZINC000045927156    0.2200
     42 H42        -5.2466    1.7140   49.3134 H       1  ZINC000045927156    0.2200
     43 H43       -14.1660   -1.7031   55.5992 H       1  ZINC000045927156    0.0700
     44 H44       -14.2709   -2.3275   53.9246 H       1  ZINC000045927156    0.0800
     45 H45       -15.9768   -3.2722   55.7989 H       1  ZINC000045927156    0.0900
     46 H46       -15.2191   -4.4232   54.6477 H       1  ZINC000045927156    0.0800
     47 H47       -14.3678   -3.7599   57.5229 H       1  ZINC000045927156    0.0900
     48 H48       -14.5265   -5.3724   56.7525 H       1  ZINC000045927156    0.0900
     49 H49       -11.6405   -0.7940   59.8530 H       1  ZINC000045927156    0.1300
     50 H50        -9.8849   -0.8269   61.5361 H       1  ZINC000045927156    0.1400
     51 H51        -8.2934   -2.6998   61.6529 H       1  ZINC000045927156    0.1400
     52 H52        -8.4627   -4.5632   60.0607 H       1  ZINC000045927156    0.1300
@<TRIPOS>BOND
     1     1     2    2
     2     2     3   am
     3     2    17   am
     4     3     4    1
     5     3    32    1
     6     4     5    1
     7     4    33    1
     8     4    34    1
     9     5    10   ar
    10     5     6   ar
    11     6     7   ar
    12     6    35    1
    13     7     8   ar
    14     7    36    1
    15     8     9   ar
    16     8    37    1
    17     9    10   ar
    18     9    38    1
    19    10    11    1
    20    11    12    1
    21    11    39    1
    22    11    40    1
    23    12    16    1
    24    12    13    1
    25    13    14    2
    26    13    41    1
    27    14    15    1
    28    15    16    2
    29    15    42    1
    30    17    21    1
    31    17    18    1
    32    18    19    1
    33    18    43    1
    34    18    44    1
    35    19    20    1
    36    19    45    1
    37    19    46    1
    38    20    21    1
    39    20    47    1
    40    20    48    1
    41    21    22    1
    42    21    23    1
    43    23    31    1
    44    23    24    2
    45    24    25    1
    46    25    30   ar
    47    25    26   ar
    48    26    27   ar
    49    26    49    1
    50    27    28   ar
    51    27    50    1
    52    28    29   ar
    53    28    51    1
    54    29    30   ar
    55    29    52    1
    56    30    31    1
@<TRIPOS>SUBSTRUCTURE
     1 ZINC000045927156        1 TEMP              0 ****  ****    0 ROOT


##########                                Name:    ZINC000428266315
##########                DOCK_Rotatable_Bonds:                  10
##########                         Heavy_Atoms:                  30
##########                    Molecular_Weight:             423.438
##########                DOCK_Rotatable_Bonds:                  10
##########                       Formal_Charge:          0.00999977
##########                     HBond_Acceptors:                  10
##########                        HBond_Donors:                   0
##########                         Heavy_Atoms:                  30
##########                          Grid_Score:          -38.758015
##########                     Grid_vdw_energy:          -37.564510
##########                      Grid_es_energy:           -1.193505
##########           Internal_energy_repulsive:           17.114794

@<TRIPOS>MOLECULE
ZINC000428266315
 54 56 1 0 0
SMALL
USER_CHARGES


@<TRIPOS>ATOM
      1 C1        -12.9768    3.3431   48.4921 C.3     1  ZINC000428266315   -0.1500
      2 C2        -13.7585    2.0383   48.3260 C.3     1  ZINC000428266315    0.0600
      3 O3        -13.5167    1.1917   49.4516 O.3     1  ZINC000428266315   -0.3700
      4 C4        -14.2034   -0.0602   49.3953 C.3     1  ZINC000428266315    0.1800
      5 H5        -15.2781    0.1165   49.3506 H       1  ZINC000428266315    0.0900
      6 C6        -13.7608   -0.8291   48.1487 C.3     1  ZINC000428266315   -0.1700
      7 C7        -13.8778   -0.8676   50.6254 C.2     1  ZINC000428266315    0.1700
      8 N8        -14.5186   -0.8397   51.7555 N.2     1  ZINC000428266315   -0.3500
      9 O9        -14.0090   -1.6054   52.5461 O.3     1  ZINC000428266315    0.0800
     10 C10       -12.9630   -2.2131   51.9783 C.2     1  ZINC000428266315    0.1900
     11 C11       -12.0612   -3.2353   52.6210 C.3     1  ZINC000428266315    0.1500
     12 N12       -11.1910   -2.5728   53.6018 N.3     1  ZINC000428266315   -0.5300
     13 C13       -10.5493   -1.3865   53.0196 C.3     1  ZINC000428266315    0.0200
     14 C14       -11.9381   -2.2240   54.8175 C.3     1  ZINC000428266315    0.1400
     15 C15       -11.5882   -3.1930   55.9174 C.2     1  ZINC000428266315   -0.2300
     16 C16       -10.6742   -2.9917   56.8948 C.2     1  ZINC000428266315    0.0800
     17 N17       -10.6588   -4.0917   57.6765 N.pl3   1  ZINC000428266315   -0.3700
     18 C18        -9.8136   -4.3000   58.8547 C.3     1  ZINC000428266315    0.1700
     19 C19       -10.0104   -3.1612   59.8218 C.ar    1  ZINC000428266315   -0.0800
     20 C20        -8.9242   -2.6227   60.4859 C.ar    1  ZINC000428266315   -0.1000
     21 C21        -9.1048   -1.5780   61.3730 C.ar    1  ZINC000428266315   -0.0700
     22 C22       -10.3715   -1.0716   61.5957 C.ar    1  ZINC000428266315   -0.1700
     23 C23       -10.5685    0.0670   62.5632 C.3     1  ZINC000428266315    0.5100
     24 F24       -10.3478    1.2816   61.9051 F       1  ZINC000428266315   -0.1700
     25 F25       -11.8762    0.0364   63.0594 F       1  ZINC000428266315   -0.1800
     26 F26        -9.6644   -0.0602   63.6232 F       1  ZINC000428266315   -0.1800
     27 C27       -11.4577   -1.6092   60.9307 C.ar    1  ZINC000428266315   -0.0700
     28 C28       -11.2765   -2.6513   60.0406 C.ar    1  ZINC000428266315   -0.0800
     29 N29       -11.5943   -4.9990   57.1624 N.2     1  ZINC000428266315   -0.2900
     30 C30       -12.1548   -4.4569   56.1118 C.2     1  ZINC000428266315    0.0600
     31 N31       -12.8741   -1.7537   50.7533 N.2     1  ZINC000428266315   -0.4600
     32 H32       -13.1611    3.9888   47.6335 H       1  ZINC000428266315    0.0700
     33 H33       -13.3010    3.8474   49.4023 H       1  ZINC000428266315    0.0600
     34 H34       -11.9115    3.1225   48.5588 H       1  ZINC000428266315    0.0600
     35 H35       -14.8238    2.2589   48.2593 H       1  ZINC000428266315    0.0500
     36 H36       -13.4342    1.5339   47.4157 H       1  ZINC000428266315    0.0500
     37 H37       -12.6862   -1.0058   48.1934 H       1  ZINC000428266315    0.0700
     38 H38       -14.2845   -1.7840   48.1058 H       1  ZINC000428266315    0.0700
     39 H39       -13.9964   -0.2451   47.2590 H       1  ZINC000428266315    0.0700
     40 H40       -12.6669   -3.9894   53.1236 H       1  ZINC000428266315    0.0800
     41 H41       -11.4489   -3.7120   51.8556 H       1  ZINC000428266315    0.1200
     42 H42       -11.3150   -0.6802   52.6982 H       1  ZINC000428266315    0.0400
     43 H43        -9.9110   -0.9151   53.7668 H       1  ZINC000428266315    0.0800
     44 H44        -9.9463   -1.6837   52.1618 H       1  ZINC000428266315    0.0600
     45 H45       -11.6758   -1.2124   55.1275 H       1  ZINC000428266315    0.0500
     46 H46       -13.0077   -2.2760   54.6142 H       1  ZINC000428266315    0.0900
     47 H47       -10.0660   -2.1089   57.0258 H       1  ZINC000428266315    0.1700
     48 H48       -10.0877   -5.2381   59.3373 H       1  ZINC000428266315    0.1000
     49 H49        -8.7680   -4.3406   58.5491 H       1  ZINC000428266315    0.1100
     50 H50        -7.9345   -3.0184   60.3119 H       1  ZINC000428266315    0.1300
     51 H51        -8.2562   -1.1577   61.8923 H       1  ZINC000428266315    0.1400
     52 H52       -12.4473   -1.2132   61.1044 H       1  ZINC000428266315    0.1400
     53 H53       -12.1251   -3.0713   59.5210 H       1  ZINC000428266315    0.1400
     54 H54       -12.9178   -4.9102   55.4964 H       1  ZINC000428266315    0.1800
@<TRIPOS>BOND
     1     1     2    1
     2     1    32    1
     3     1    33    1
     4     1    34    1
     5     2     3    1
     6     2    35    1
     7     2    36    1
     8     3     4    1
     9     4     5    1
    10     4     6    1
    11     4     7    1
    12     6    37    1
    13     6    38    1
    14     6    39    1
    15     7    31    1
    16     7     8    2
    17     8     9    1
    18     9    10    1
    19    10    11    1
    20    10    31    2
    21    11    12    1
    22    11    40    1
    23    11    41    1
    24    12    13    1
    25    12    14    1
    26    13    42    1
    27    13    43    1
    28    13    44    1
    29    14    15    1
    30    14    45    1
    31    14    46    1
    32    15    30    1
    33    15    16    2
    34    16    17    1
    35    16    47    1
    36    17    18    1
    37    17    29    1
    38    18    19    1
    39    18    48    1
    40    18    49    1
    41    19    28   ar
    42    19    20   ar
    43    20    21   ar
    44    20    50    1
    45    21    22   ar
    46    21    51    1
    47    22    23    1
    48    22    27   ar
    49    23    24    1
    50    23    25    1
    51    23    26    1
    52    27    28   ar
    53    27    52    1
    54    28    53    1
    55    29    30    2
    56    30    54    1
@<TRIPOS>SUBSTRUCTURE
     1 ZINC000428266315        1 TEMP              0 ****  ****    0 ROOT


##########                                Name:    ZINC000508765459
##########                DOCK_Rotatable_Bonds:                  10
##########                         Heavy_Atoms:                  29
##########                    Molecular_Weight:               405.5
##########                DOCK_Rotatable_Bonds:                  10
##########                       Formal_Charge:         -6.4075e-07
##########                     HBond_Acceptors:                  10
##########                        HBond_Donors:                   1
##########                         Heavy_Atoms:                  29
##########                          Grid_Score:          -38.674248
##########                     Grid_vdw_energy:          -35.619587
##########                      Grid_es_energy:           -3.054660
##########           Internal_energy_repulsive:           14.030851

@<TRIPOS>MOLECULE
ZINC000508765459
 60 62 1 0 0
SMALL
USER_CHARGES


@<TRIPOS>ATOM
      1 C1         -9.1862   -0.5060   62.4920 C.3     1  ZINC000508765459    0.0300
      2 O2         -9.9704   -1.3956   61.6946 O.3     1  ZINC000508765459   -0.3900
      3 C3         -9.2381   -2.5056   61.1714 C.3     1  ZINC000508765459    0.0500
      4 C4         -8.7173   -2.1603   59.7748 C.3     1  ZINC000508765459    0.1100
      5 N5         -9.6437   -2.6799   58.7659 N.am    1  ZINC000508765459   -0.5900
      6 C6        -10.6006   -1.7497   58.1822 C.3     1  ZINC000508765459    0.1000
      7 C7        -11.0965   -2.2601   56.8278 C.3     1  ZINC000508765459    0.1200
      8 N8        -11.4510   -3.6820   56.9742 N.am    1  ZINC000508765459   -0.6400
      9 C9        -12.7089   -4.1164   56.7615 C.2     1  ZINC000508765459    0.7100
     10 O10       -12.9749   -5.2958   56.8907 O.2     1  ZINC000508765459   -0.5800
     11 N11       -13.6721   -3.2435   56.4055 N.am    1  ZINC000508765459   -0.7400
     12 C12       -15.0400   -3.7154   56.1759 C.3     1  ZINC000508765459    0.1400
     13 C13       -15.9988   -2.5231   56.1832 C.3     1  ZINC000508765459   -0.1400
     14 C14       -16.6913   -2.4339   57.5446 C.3     1  ZINC000508765459    0.0600
     15 N15       -15.7939   -1.7836   58.5087 N.3     1  ZINC000508765459   -0.5400
     16 C16       -15.6511   -2.5950   59.7257 C.3     1  ZINC000508765459    0.0500
     17 C17       -14.6494   -1.9240   60.6684 C.3     1  ZINC000508765459    0.0700
     18 N18       -15.1183   -0.5697   60.9937 N.3     1  ZINC000508765459   -0.4600
     19 C19       -14.2726    0.0431   61.9021 C.ar    1  ZINC000508765459    0.4900
     20 N20       -13.2283    0.7251   61.4553 N.ar    1  ZINC000508765459   -0.5500
     21 C21       -12.4008    1.3228   62.2965 C.ar    1  ZINC000508765459    0.1700
     22 C22       -12.6375    1.2289   63.6589 C.ar    1  ZINC000508765459   -0.2600
     23 C23       -13.7390    0.5078   64.0921 C.ar    1  ZINC000508765459    0.1700
     24 N24       -14.5298   -0.0618   63.1976 N.ar    1  ZINC000508765459   -0.5300
     25 C25       -15.2610    0.2416   59.7768 C.3     1  ZINC000508765459    0.0700
     26 C26       -16.2627   -0.4294   58.8341 C.3     1  ZINC000508765459    0.0600
     27 C27       -10.3767   -4.6084   57.3613 C.3     1  ZINC000508765459    0.1000
     28 C28        -9.5482   -3.9703   58.4424 C.2     1  ZINC000508765459    0.5100
     29 O29        -8.7628   -4.6630   59.0542 O.2     1  ZINC000508765459   -0.5400
     30 H30        -8.3730   -0.0999   61.8903 H       1  ZINC000508765459    0.0400
     31 H31        -9.8144    0.3092   62.8513 H       1  ZINC000508765459    0.0900
     32 H32        -8.7733   -1.0485   63.3424 H       1  ZINC000508765459    0.0400
     33 H33        -8.3971   -2.7281   61.8280 H       1  ZINC000508765459    0.0500
     34 H34        -9.8917   -3.3758   61.1105 H       1  ZINC000508765459    0.0600
     35 H35        -8.6395   -1.0778   59.6734 H       1  ZINC000508765459    0.1100
     36 H36        -7.7348   -2.6101   59.6319 H       1  ZINC000508765459    0.0900
     37 H37       -11.4498   -1.6384   58.8565 H       1  ZINC000508765459    0.0700
     38 H38       -10.1215   -0.7801   58.0467 H       1  ZINC000508765459    0.1000
     39 H39       -11.9742   -1.6919   56.5197 H       1  ZINC000508765459    0.1200
     40 H40       -10.3079   -2.1524   56.0832 H       1  ZINC000508765459    0.0800
     41 H41       -13.4598   -2.3028   56.3013 H       1  ZINC000508765459    0.4000
     42 H42       -15.0934   -4.2188   55.2106 H       1  ZINC000508765459    0.0700
     43 H43       -15.3210   -4.4125   56.9654 H       1  ZINC000508765459    0.0700
     44 H44       -15.4394   -1.6059   55.9992 H       1  ZINC000508765459    0.0700
     45 H45       -16.7480   -2.6546   55.4025 H       1  ZINC000508765459    0.0800
     46 H46       -17.6067   -1.8501   57.4492 H       1  ZINC000508765459    0.0800
     47 H47       -16.9350   -3.4371   57.8946 H       1  ZINC000508765459    0.0400
     48 H48       -16.6179   -2.6789   60.2222 H       1  ZINC000508765459    0.0500
     49 H49       -15.2909   -3.5888   59.4599 H       1  ZINC000508765459    0.0900
     50 H50       -14.5637   -2.5089   61.5841 H       1  ZINC000508765459    0.0900
     51 H51       -13.6757   -1.8646   60.1819 H       1  ZINC000508765459    0.0600
     52 H52       -11.5511    1.8771   61.9263 H       1  ZINC000508765459    0.1700
     53 H53       -11.9776    1.7071   64.3678 H       1  ZINC000508765459    0.1500
     54 H54       -13.9513    0.4150   65.1470 H       1  ZINC000508765459    0.1700
     55 H55       -15.6212    1.2356   60.0425 H       1  ZINC000508765459    0.1000
     56 H56       -14.2943    0.3256   59.2803 H       1  ZINC000508765459    0.0500
     57 H57       -16.3483    0.1556   57.9184 H       1  ZINC000508765459    0.0900
     58 H58       -17.2364   -0.4887   59.3205 H       1  ZINC000508765459    0.0500
     59 H59       -10.8112   -5.5373   57.7307 H       1  ZINC000508765459    0.1100
     60 H60        -9.7455   -4.8167   56.4974 H       1  ZINC000508765459    0.1100
@<TRIPOS>BOND
     1     1     2    1
     2     1    30    1
     3     1    31    1
     4     1    32    1
     5     2     3    1
     6     3     4    1
     7     3    33    1
     8     3    34    1
     9     4     5    1
    10     4    35    1
    11     4    36    1
    12     5    28   am
    13     5     6    1
    14     6     7    1
    15     6    37    1
    16     6    38    1
    17     7     8    1
    18     7    39    1
    19     7    40    1
    20     8     9   am
    21     8    27    1
    22     9    10    2
    23     9    11   am
    24    11    12    1
    25    11    41    1
    26    12    13    1
    27    12    42    1
    28    12    43    1
    29    13    14    1
    30    13    44    1
    31    13    45    1
    32    14    15    1
    33    14    46    1
    34    14    47    1
    35    15    26    1
    36    15    16    1
    37    16    17    1
    38    16    48    1
    39    16    49    1
    40    17    18    1
    41    17    50    1
    42    17    51    1
    43    18    19    1
    44    18    25    1
    45    19    24   ar
    46    19    20   ar
    47    20    21   ar
    48    21    22   ar
    49    21    52    1
    50    22    23   ar
    51    22    53    1
    52    23    24   ar
    53    23    54    1
    54    25    26    1
    55    25    55    1
    56    25    56    1
    57    26    57    1
    58    26    58    1
    59    27    28    1
    60    27    59    1
    61    27    60    1
    62    28    29    2
@<TRIPOS>SUBSTRUCTURE
     1 ZINC000508765459        1 TEMP              0 ****  ****    0 ROOT


##########                                Name:    ZINC000508782983
##########                DOCK_Rotatable_Bonds:                   9
##########                         Heavy_Atoms:                  27
##########                    Molecular_Weight:             373.458
##########                DOCK_Rotatable_Bonds:                   9
##########                       Formal_Charge:          -0.0200006
##########                     HBond_Acceptors:                   9
##########                        HBond_Donors:                   2
##########                         Heavy_Atoms:                  27
##########                          Grid_Score:          -38.645855
##########                     Grid_vdw_energy:          -37.027672
##########                      Grid_es_energy:           -1.618183
##########           Internal_energy_repulsive:           15.997457

@<TRIPOS>MOLECULE
ZINC000508782983
 54 56 1 0 0
SMALL
USER_CHARGES


@<TRIPOS>ATOM
      1 C1        -12.9686   -1.9811   54.5717 C.3     1  ZINC000508782983   -0.1500
      2 C2        -14.2829   -2.3919   53.9049 C.3     1  ZINC000508782983   -0.1100
      3 C3        -14.0921   -2.4386   52.3875 C.3     1  ZINC000508782983   -0.1500
      4 C4        -14.7003   -3.7748   54.4091 C.3     1  ZINC000508782983    0.1000
      5 N5        -14.8623   -3.7355   55.8647 N.pl3   1  ZINC000508782983   -0.4400
      6 C6        -15.8719   -3.1187   56.5531 C.2     1  ZINC000508782983   -0.0400
      7 C7        -15.6360   -3.3289   57.8622 C.2     1  ZINC000508782983   -0.0300
      8 N8        -14.5130   -4.0544   57.9701 N.2     1  ZINC000508782983   -0.4700
      9 C9        -14.0468   -4.3058   56.7774 C.2     1  ZINC000508782983    0.1700
     10 C10       -12.7998   -5.0942   56.4700 C.3     1  ZINC000508782983    0.2100
     11 N11       -11.8670   -4.9906   57.5950 N.am    1  ZINC000508782983   -0.6900
     12 C12       -10.8644   -4.0906   57.5585 C.2     1  ZINC000508782983    0.5100
     13 O13       -10.7353   -3.3650   56.5944 O.2     1  ZINC000508782983   -0.5100
     14 C14        -9.9118   -3.9862   58.7053 C.2     1  ZINC000508782983    0.5100
     15 O15        -8.8867   -4.6357   58.7035 O.2     1  ZINC000508782983   -0.5200
     16 N16       -10.1911   -3.1708   59.7413 N.am    1  ZINC000508782983   -0.5800
     17 C17        -9.2645   -3.0485   60.8770 C.3     1  ZINC000508782983    0.0800
     18 C18        -8.9890   -1.5612   61.1225 C.3     1  ZINC000508782983    0.0400
     19 N19       -10.2645   -0.8501   61.2822 N.3     1  ZINC000508782983   -0.5400
     20 C20       -10.0426    0.5439   61.6891 C.3     1  ZINC000508782983    0.1400
     21 C21        -9.8579    0.6075   63.1834 C.2     1  ZINC000508782983    0.2100
     22 N22       -10.7394    1.0442   64.0409 N.2     1  ZINC000508782983   -0.4900
     23 C23       -10.2339    0.9537   65.2799 C.2     1  ZINC000508782983   -0.0300
     24 C24        -8.9919    0.4415   65.1868 C.2     1  ZINC000508782983   -0.0500
     25 N25        -8.7548    0.2167   63.8575 N.pl3   1  ZINC000508782983   -0.5600
     26 C26       -11.0699   -0.9186   60.0555 C.3     1  ZINC000508782983    0.0400
     27 C27       -11.4278   -2.3749   59.7634 C.3     1  ZINC000508782983    0.1100
     28 H28       -12.6712   -0.9960   54.2124 H       1  ZINC000508782983    0.0700
     29 H29       -13.1045   -1.9479   55.6527 H       1  ZINC000508782983    0.0600
     30 H30       -12.1937   -2.7070   54.3251 H       1  ZINC000508782983    0.0600
     31 H31       -15.0578   -1.6661   54.1514 H       1  ZINC000508782983    0.0800
     32 H32       -13.2654   -3.1065   52.1456 H       1  ZINC000508782983    0.0600
     33 H33       -15.0048   -2.8051   51.9176 H       1  ZINC000508782983    0.0600
     34 H34       -13.8703   -1.4373   52.0182 H       1  ZINC000508782983    0.0600
     35 H35       -15.6447   -4.0606   53.9460 H       1  ZINC000508782983    0.1000
     36 H36       -13.9326   -4.5034   54.1486 H       1  ZINC000508782983    0.0900
     37 H37       -16.6987   -2.5687   56.1282 H       1  ZINC000508782983    0.1800
     38 H38       -16.2444   -2.9756   58.6815 H       1  ZINC000508782983    0.1700
     39 H39       -13.0613   -6.1401   56.3101 H       1  ZINC000508782983    0.0900
     40 H40       -12.3301   -4.6954   55.5708 H       1  ZINC000508782983    0.1100
     41 H41       -11.9709   -5.5698   58.3661 H       1  ZINC000508782983    0.4200
     42 H42        -9.7151   -3.4891   61.7663 H       1  ZINC000508782983    0.0800
     43 H43        -8.3307   -3.5603   60.6444 H       1  ZINC000508782983    0.1400
     44 H44        -8.3928   -1.4464   62.0277 H       1  ZINC000508782983    0.0900
     45 H45        -8.4454   -1.1470   60.2734 H       1  ZINC000508782983    0.0400
     46 H46        -9.1500    0.9287   61.1960 H       1  ZINC000508782983    0.0900
     47 H47       -10.9042    1.1474   61.4035 H       1  ZINC000508782983    0.0700
     48 H48       -10.7350    1.2411   66.1924 H       1  ZINC000508782983    0.1700
     49 H49        -8.3146    0.2424   66.0042 H       1  ZINC000508782983    0.1800
     50 H50        -7.9440   -0.1496   63.4714 H       1  ZINC000508782983    0.4200
     51 H51       -11.9828   -0.3377   60.1870 H       1  ZINC000508782983    0.1100
     52 H52       -10.4973   -0.5133   59.2214 H       1  ZINC000508782983    0.0400
     53 H53       -11.9260   -2.4426   58.7964 H       1  ZINC000508782983    0.1000
     54 H54       -12.0862   -2.7541   60.5450 H       1  ZINC000508782983    0.0800
@<TRIPOS>BOND
     1     1     2    1
     2     1    28    1
     3     1    29    1
     4     1    30    1
     5     2     3    1
     6     2     4    1
     7     2    31    1
     8     3    32    1
     9     3    33    1
    10     3    34    1
    11     4     5    1
    12     4    35    1
    13     4    36    1
    14     5     9    1
    15     5     6    1
    16     6     7    2
    17     6    37    1
    18     7     8    1
    19     7    38    1
    20     8     9    2
    21     9    10    1
    22    10    11    1
    23    10    39    1
    24    10    40    1
    25    11    12   am
    26    11    41    1
    27    12    13    2
    28    12    14    1
    29    14    15    2
    30    14    16   am
    31    16    27    1
    32    16    17    1
    33    17    18    1
    34    17    42    1
    35    17    43    1
    36    18    19    1
    37    18    44    1
    38    18    45    1
    39    19    20    1
    40    19    26    1
    41    20    21    1
    42    20    46    1
    43    20    47    1
    44    21    25    1
    45    21    22    2
    46    22    23    1
    47    23    24    2
    48    23    48    1
    49    24    25    1
    50    24    49    1
    51    25    50    1
    52    26    27    1
    53    26    51    1
    54    26    52    1
    55    27    53    1
    56    27    54    1
@<TRIPOS>SUBSTRUCTURE
     1 ZINC000508782983        1 TEMP              0 ****  ****    0 ROOT


##########                                Name:    ZINC001369071670
##########                DOCK_Rotatable_Bonds:                   8
##########                         Heavy_Atoms:                  24
##########                    Molecular_Weight:             335.366
##########                DOCK_Rotatable_Bonds:                   8
##########                       Formal_Charge:        -2.90573e-07
##########                     HBond_Acceptors:                  10
##########                        HBond_Donors:                   1
##########                         Heavy_Atoms:                  24
##########                          Grid_Score:          -38.576015
##########                     Grid_vdw_energy:          -37.631523
##########                      Grid_es_energy:           -0.944491
##########           Internal_energy_repulsive:            9.671890

@<TRIPOS>MOLECULE
ZINC001369071670
 45 47 1 0 0
SMALL
USER_CHARGES


@<TRIPOS>ATOM
      1 C1         -9.0551   -1.2399   61.7654 C.3     1  ZINC001369071670   -0.0800
      2 C2         -9.3114   -2.2822   60.7076 C.2     1  ZINC001369071670    0.0000
      3 C3        -10.3542   -2.3212   59.8468 C.2     1  ZINC001369071670   -0.2300
      4 C4        -10.1188   -3.4898   59.0765 C.2     1  ZINC001369071670    0.2100
      5 O5        -10.8906   -3.9701   58.0688 O.3     1  ZINC001369071670   -0.2600
      6 C6        -12.0582   -3.2188   57.7312 C.3     1  ZINC001369071670    0.0400
      7 C7        -12.6531   -3.7605   56.4570 C.2     1  ZINC001369071670    0.5200
      8 O8        -13.1135   -4.8823   56.4316 O.2     1  ZINC001369071670   -0.5100
      9 N9        -12.6738   -2.9984   55.3456 N.am    1  ZINC001369071670   -0.7200
     10 C10       -13.2537   -3.5244   54.1073 C.3     1  ZINC001369071670    0.1500
     11 H11       -13.0663   -4.5964   54.0450 H       1  ZINC001369071670    0.0900
     12 C12       -14.7623   -3.2693   54.1021 C.3     1  ZINC001369071670   -0.1700
     13 C13       -12.6139   -2.8243   52.9067 C.3     1  ZINC001369071670   -0.1200
     14 C14       -12.5251   -1.2948   53.0564 C.3     1  ZINC001369071670    0.0100
     15 N15       -11.1689   -1.4161   52.4775 N.3     1  ZINC001369071670   -0.4800
     16 C16       -10.2128   -0.5601   53.1925 C.3     1  ZINC001369071670    0.1000
     17 C17        -8.8958   -0.5571   52.4599 C.2     1  ZINC001369071670    0.1900
     18 N18        -8.3470   -1.5686   51.8326 N.2     1  ZINC001369071670   -0.3000
     19 N19        -7.2276   -1.1687   51.3356 N.2     1  ZINC001369071670   -0.0700
     20 N20        -7.0481    0.0716   51.6297 N.2     1  ZINC001369071670   -0.0900
     21 N21        -8.0577    0.4863   52.3177 N.pl3   1  ZINC001369071670   -0.3000
     22 C22        -8.2509    1.8366   52.8521 C.3     1  ZINC001369071670    0.0800
     23 C23       -11.0749   -2.8181   52.9409 C.3     1  ZINC001369071670    0.0200
     24 N24        -9.0104   -4.0100   59.5312 N.2     1  ZINC001369071670   -0.4100
     25 O25        -8.5476   -3.3491   60.4318 O.3     1  ZINC001369071670    0.1000
     26 H26        -8.1328   -1.4788   62.2949 H       1  ZINC001369071670    0.0900
     27 H27        -8.9610   -0.2608   61.2956 H       1  ZINC001369071670    0.1000
     28 H28        -9.8859   -1.2261   62.4708 H       1  ZINC001369071670    0.1000
     29 H29       -11.1755   -1.6246   59.7648 H       1  ZINC001369071670    0.1800
     30 H30       -12.7884   -3.3005   58.5365 H       1  ZINC001369071670    0.1000
     31 H31       -11.7886   -2.1721   57.5900 H       1  ZINC001369071670    0.1000
     32 H32       -12.3046   -2.1016   55.3655 H       1  ZINC001369071670    0.4000
     33 H33       -15.2180   -3.7681   54.9574 H       1  ZINC001369071670    0.0600
     34 H34       -14.9497   -2.1973   54.1644 H       1  ZINC001369071670    0.0600
     35 H35       -15.1938   -3.6606   53.1808 H       1  ZINC001369071670    0.0700
     36 H36       -13.0303   -3.1500   51.9536 H       1  ZINC001369071670    0.1100
     37 H37       -13.2257   -0.7502   52.4234 H       1  ZINC001369071670    0.1000
     38 H38       -12.5317   -0.9537   54.0917 H       1  ZINC001369071670    0.0800
     39 H39       -10.6026    0.4565   53.2432 H       1  ZINC001369071670    0.1000
     40 H40       -10.0660   -0.9438   54.2021 H       1  ZINC001369071670    0.0900
     41 H41        -8.7765    2.4465   52.1173 H       1  ZINC001369071670    0.1000
     42 H42        -8.8390    1.7842   53.7682 H       1  ZINC001369071670    0.1000
     43 H43        -7.2807    2.2841   53.0682 H       1  ZINC001369071670    0.1100
     44 H44       -10.6575   -2.9226   53.9423 H       1  ZINC001369071670    0.0800
     45 H45       -10.6169   -3.4906   52.2156 H       1  ZINC001369071670    0.1000
@<TRIPOS>BOND
     1     1     2    1
     2     1    26    1
     3     1    27    1
     4     1    28    1
     5     2    25    1
     6     2     3    2
     7     3     4    1
     8     3    29    1
     9     4     5    1
    10     4    24    2
    11     5     6    1
    12     6     7    1
    13     6    30    1
    14     6    31    1
    15     7     8    2
    16     7     9   am
    17     9    10    1
    18     9    32    1
    19    10    11    1
    20    10    12    1
    21    10    13    1
    22    12    33    1
    23    12    34    1
    24    12    35    1
    25    13    23    1
    26    13    14    1
    27    13    36    1
    28    14    15    1
    29    14    37    1
    30    14    38    1
    31    15    16    1
    32    15    23    1
    33    16    17    1
    34    16    39    1
    35    16    40    1
    36    17    21    1
    37    17    18    2
    38    18    19    1
    39    19    20    2
    40    20    21    1
    41    21    22    1
    42    22    41    1
    43    22    42    1
    44    22    43    1
    45    23    44    1
    46    23    45    1
    47    24    25    1
@<TRIPOS>SUBSTRUCTURE
     1 ZINC001369071670        1 TEMP              0 ****  ****    0 ROOT


##########                                Name:    ZINC000355549087
##########                DOCK_Rotatable_Bonds:                   9
##########                         Heavy_Atoms:                  23
##########                    Molecular_Weight:             336.415
##########                DOCK_Rotatable_Bonds:                   9
##########                       Formal_Charge:        -9.53674e-07
##########                     HBond_Acceptors:                   8
##########                        HBond_Donors:                   4
##########                         Heavy_Atoms:                  23
##########                          Grid_Score:          -38.447105
##########                     Grid_vdw_energy:          -35.728573
##########                      Grid_es_energy:           -2.718534
##########           Internal_energy_repulsive:           20.096275

@<TRIPOS>MOLECULE
ZINC000355549087
 43 44 1 0 0
SMALL
USER_CHARGES


@<TRIPOS>ATOM
      1 C1        -10.2669   -2.2699   52.8063 C.3     1  <0>        -0.1500
      2 C2        -11.0973   -2.3431   54.0893 C.3     1  <0>        -0.1200
      3 C3        -11.5780   -3.7796   54.3043 C.3     1  <0>        -0.1000
      4 H4        -10.7165   -4.4384   54.4138 H       1  <0>         0.0800
      5 C5        -12.4106   -4.2246   53.1004 C.3     1  <0>        -0.1500
      6 C6        -12.4352   -3.8465   55.5700 C.3     1  <0>         0.0900
      7 H7        -13.1019   -2.9848   55.6031 H       1  <0>         0.1000
      8 O8        -13.2091   -5.0476   55.5582 O.3     1  <0>        -0.3500
      9 C9        -14.2887   -5.0526   56.4943 C.3     1  <0>         0.0200
     10 C10       -11.5412   -3.8366   56.7831 C.2     1  <0>         0.5100
     11 O11       -11.2765   -4.8758   57.3496 O.2     1  <0>        -0.4800
     12 N12       -11.0359   -2.6731   57.2386 N.am    1  <0>        -0.6200
     13 C13       -10.2103   -2.6644   58.3563 C.2     1  <0>         0.2400
     14 N14       -10.2809   -1.8031   59.3205 N.2     1  <0>        -0.5000
     15 C15        -9.4131   -1.9419   60.3141 C.2     1  <0>         0.1700
     16 C16        -9.3754   -1.0298   61.4858 C.2     1  <0>        -0.1100
     17 C17        -9.9684    0.1971   61.5735 C.2     1  <0>         0.0600
     18 N18        -9.7061    0.7152   62.7983 N.pl3   1  <0>        -0.5400
     19 C19        -8.9392   -0.1828   63.5055 C.2     1  <0>        -0.0600
     20 C20        -8.4419   -0.0023   64.8740 C.2     1  <0>         0.5900
     21 N21        -8.0599    1.2192   65.2966 N.am    1  <0>        -0.8600
     22 O22        -8.3742   -0.9556   65.6274 O.2     1  <0>        -0.5300
     23 C23        -8.7270   -1.2747   62.7109 C.2     1  <0>        -0.0600
     24 C24        -8.5701   -2.9801   60.1688 C.2     1  <0>        -0.3200
     25 S25        -8.9626   -3.7934   58.6563 S.3     1  <0>         0.2500
     26 H26        -9.9245   -1.2465   52.6530 H       1  <0>         0.0600
     27 H27        -9.4056   -2.9321   52.8927 H       1  <0>         0.0600
     28 H28       -10.8793   -2.5788   51.9590 H       1  <0>         0.0600
     29 H29       -10.4850   -2.0342   54.9364 H       1  <0>         0.0600
     30 H30       -11.9587   -1.6808   54.0028 H       1  <0>         0.0700
     31 H31       -13.2721   -3.5657   52.9909 H       1  <0>         0.0700
     32 H32       -11.7999   -4.1769   52.1987 H       1  <0>         0.0600
     33 H33       -12.7530   -5.2480   53.2536 H       1  <0>         0.0500
     34 H34       -14.7650   -6.0331   56.4944 H       1  <0>         0.0900
     35 H35       -13.9061   -4.8345   57.4914 H       1  <0>         0.0500
     36 H36       -15.0186   -4.2941   56.2112 H       1  <0>         0.0500
     37 H37       -11.2487   -1.8419   56.7862 H       1  <0>         0.4200
     38 H38       -10.5486    0.6743   60.7976 H       1  <0>         0.1800
     39 H39       -10.0090    1.5775   63.1230 H       1  <0>         0.4200
     40 H40        -7.7300    1.3382   66.2010 H       1  <0>         0.4000
     41 H41        -8.1150    1.9792   64.6965 H       1  <0>         0.4100
     42 H42        -8.1622   -2.1574   62.9720 H       1  <0>         0.1500
     43 H43        -7.7916   -3.2670   60.8600 H       1  <0>         0.1800
@<TRIPOS>BOND
     1     1     2    1
     2     1    26    1
     3     1    27    1
     4     1    28    1
     5     2     3    1
     6     2    29    1
     7     2    30    1
     8     3     4    1
     9     3     5    1
    10     3     6    1
    11     5    31    1
    12     5    32    1
    13     5    33    1
    14     6     7    1
    15     6     8    1
    16     6    10    1
    17     8     9    1
    18     9    34    1
    19     9    35    1
    20     9    36    1
    21    10    11    2
    22    10    12   am
    23    12    13    1
    24    12    37    1
    25    13    25    1
    26    13    14    2
    27    14    15    1
    28    15    16    1
    29    15    24    2
    30    16    23    1
    31    16    17    2
    32    17    18    1
    33    17    38    1
    34    18    19    1
    35    18    39    1
    36    19    20    1
    37    19    23    2
    38    20    21   am
    39    20    22    2
    40    21    40    1
    41    21    41    1
    42    23    42    1
    43    24    25    1
    44    24    43    1
@<TRIPOS>SUBSTRUCTURE
     1 <0>         1 TEMP              0 ****  ****    0 ROOT


##########                                Name:    ZINC000433961694
##########                DOCK_Rotatable_Bonds:                   7
##########                         Heavy_Atoms:                  29
##########                    Molecular_Weight:             413.472
##########                DOCK_Rotatable_Bonds:                   7
##########                       Formal_Charge:          0.00999992
##########                     HBond_Acceptors:                   8
##########                        HBond_Donors:                   0
##########                         Heavy_Atoms:                  29
##########                          Grid_Score:          -38.402748
##########                     Grid_vdw_energy:          -39.257702
##########                      Grid_es_energy:            0.854954
##########           Internal_energy_repulsive:            6.687403

@<TRIPOS>MOLECULE
ZINC000433961694
 49 52 1 0 0
SMALL
USER_CHARGES


@<TRIPOS>ATOM
      1 C1        -13.6396   -2.6731   58.6324 C.3     1  ZINC000433961694   -0.1000
      2 C2        -12.2178   -3.1722   58.6106 C.2     1  ZINC000433961694    0.1600
      3 C3        -11.7455   -4.0102   57.6540 C.2     1  ZINC000433961694   -0.3000
      4 C4        -12.5089   -4.5508   56.5242 C.2     1  ZINC000433961694    0.6200
      5 O5        -13.3021   -5.4561   56.7033 O.2     1  ZINC000433961694   -0.5100
      6 N6        -12.3319   -4.0448   55.2876 N.am    1  ZINC000433961694   -0.6100
      7 C7        -13.0298   -4.4917   54.0683 C.3     1  ZINC000433961694    0.1100
      8 C8        -12.9769   -3.2740   53.1121 C.3     1  ZINC000433961694   -0.1300
      9 C9        -11.5684   -2.6992   53.4176 C.3     1  ZINC000433961694    0.0800
     10 H10       -10.8033   -3.2339   52.8546 H       1  ZINC000433961694    0.1000
     11 O11       -11.5200   -1.3003   53.1299 O.3     1  ZINC000433961694   -0.2900
     12 C12       -10.2905   -0.7357   53.0207 C.ar    1  ZINC000433961694    0.1700
     13 C13        -9.3388   -1.2602   52.1496 C.ar    1  ZINC000433961694   -0.2600
     14 C14        -8.1004   -0.6575   52.0675 C.ar    1  ZINC000433961694    0.1400
     15 N15        -7.8138    0.4015   52.8006 N.ar    1  ZINC000433961694   -0.5100
     16 C16        -8.6886    0.9274   53.6370 C.ar    1  ZINC000433961694    0.1400
     17 C17        -9.9506    0.3862   53.7725 C.ar    1  ZINC000433961694   -0.2000
     18 C18       -11.4155   -2.9514   54.9322 C.3     1  ZINC000433961694    0.0600
     19 S19       -10.0503   -4.3323   58.0116 S.3     1  ZINC000433961694    0.2100
     20 C20       -10.1402   -3.3253   59.3902 C.2     1  ZINC000433961694    0.0400
     21 C21        -8.9944   -3.0482   60.3291 C.3     1  ZINC000433961694    0.1400
     22 O22        -8.5860   -1.6856   60.1931 O.3     1  ZINC000433961694   -0.3000
     23 C23        -9.0784   -0.8003   61.0998 C.ar    1  ZINC000433961694    0.1200
     24 C24        -8.7327   -0.9128   62.4383 C.ar    1  ZINC000433961694   -0.1800
     25 C25        -9.2338   -0.0126   63.3586 C.ar    1  ZINC000433961694   -0.1100
     26 C26       -10.0812    1.0014   62.9454 C.ar    1  ZINC000433961694    0.0600
     27 F27       -10.5710    1.8809   63.8464 F       1  ZINC000433961694   -0.1400
     28 C28       -10.4267    1.1152   61.6095 C.ar    1  ZINC000433961694   -0.1100
     29 C29        -9.9225    0.2197   60.6862 C.ar    1  ZINC000433961694   -0.1200
     30 N30       -11.3300   -2.8302   59.5102 N.2     1  ZINC000433961694   -0.4500
     31 H31       -13.7083   -1.7471   58.0615 H       1  ZINC000433961694    0.0800
     32 H32       -14.2947   -3.4229   58.1889 H       1  ZINC000433961694    0.1000
     33 H33       -13.9440   -2.4883   59.6626 H       1  ZINC000433961694    0.0800
     34 H34       -12.5135   -5.3438   53.6263 H       1  ZINC000433961694    0.0800
     35 H35       -14.0639   -4.7503   54.2963 H       1  ZINC000433961694    0.1000
     36 H36       -13.0526   -3.5906   52.0719 H       1  ZINC000433961694    0.1000
     37 H37       -13.7553   -2.5512   53.3565 H       1  ZINC000433961694    0.1000
     38 H38        -9.5669   -2.1270   51.5471 H       1  ZINC000433961694    0.1400
     39 H39        -7.3562   -1.0578   51.3949 H       1  ZINC000433961694    0.1600
     40 H40        -8.4150    1.7947   54.2194 H       1  ZINC000433961694    0.1700
     41 H41       -10.6621    0.8215   54.4586 H       1  ZINC000433961694    0.1400
     42 H42       -11.6745   -2.0492   55.4863 H       1  ZINC000433961694    0.0900
     43 H43       -10.3904   -3.2458   55.1573 H       1  ZINC000433961694    0.0800
     44 H44        -9.3132   -3.2313   61.3552 H       1  ZINC000433961694    0.0900
     45 H45        -8.1585   -3.7041   60.0858 H       1  ZINC000433961694    0.1000
     46 H46        -8.0724   -1.7042   62.7610 H       1  ZINC000433961694    0.1400
     47 H47        -8.9649   -0.1000   64.4009 H       1  ZINC000433961694    0.1400
     48 H48       -11.0876    1.9068   61.2884 H       1  ZINC000433961694    0.1500
     49 H49       -10.1921    0.3087   59.6442 H       1  ZINC000433961694    0.1400
@<TRIPOS>BOND
     1     1     2    1
     2     1    31    1
     3     1    32    1
     4     1    33    1
     5     2    30    1
     6     2     3    2
     7     3     4    1
     8     3    19    1
     9     4     5    2
    10     4     6   am
    11     6    18    1
    12     6     7    1
    13     7     8    1
    14     7    34    1
    15     7    35    1
    16     8     9    1
    17     8    36    1
    18     8    37    1
    19     9    10    1
    20     9    11    1
    21     9    18    1
    22    11    12    1
    23    12    17   ar
    24    12    13   ar
    25    13    14   ar
    26    13    38    1
    27    14    15   ar
    28    14    39    1
    29    15    16   ar
    30    16    17   ar
    31    16    40    1
    32    17    41    1
    33    18    42    1
    34    18    43    1
    35    19    20    1
    36    20    21    1
    37    20    30    2
    38    21    22    1
    39    21    44    1
    40    21    45    1
    41    22    23    1
    42    23    29   ar
    43    23    24   ar
    44    24    25   ar
    45    24    46    1
    46    25    26   ar
    47    25    47    1
    48    26    27    1
    49    26    28   ar
    50    28    29   ar
    51    28    48    1
    52    29    49    1
@<TRIPOS>SUBSTRUCTURE
     1 ZINC000433961694        1 TEMP              0 ****  ****    0 ROOT


##########                                Name:    ZINC000033150761
##########                DOCK_Rotatable_Bonds:                   7
##########                         Heavy_Atoms:                  29
##########                    Molecular_Weight:             413.407
##########                DOCK_Rotatable_Bonds:                   7
##########                       Formal_Charge:          0.00999993
##########                     HBond_Acceptors:                  10
##########                        HBond_Donors:                   1
##########                         Heavy_Atoms:                  29
##########                          Grid_Score:          -38.235569
##########                     Grid_vdw_energy:          -37.790108
##########                      Grid_es_energy:           -0.445459
##########           Internal_energy_repulsive:            7.579311

@<TRIPOS>MOLECULE
ZINC000033150761
 42 45 1 0 0
SMALL
USER_CHARGES


@<TRIPOS>ATOM
      1 O1        -13.0708   -4.1555   56.6981 O.2     1  ZINC000033150761   -0.5000
      2 C2        -12.3909   -3.7846   55.7648 C.2     1  ZINC000033150761    0.5200
      3 C3        -12.9667   -3.7693   54.3723 C.3     1  ZINC000033150761   -0.1300
      4 C4        -12.9704   -2.3358   53.8375 C.3     1  ZINC000033150761   -0.0100
      5 C5        -11.6357   -2.0311   53.2076 C.2     1  ZINC000033150761    0.1800
      6 N6        -10.9826   -0.8981   53.2783 N.2     1  ZINC000033150761   -0.4400
      7 C7         -9.8473   -1.0885   52.5693 C.2     1  ZINC000033150761    0.2200
      8 C8         -8.7681   -0.0927   52.3492 C.ar    1  ZINC000033150761    0.1900
      9 C9         -8.9380    1.2175   52.7880 C.ar    1  ZINC000033150761   -0.1300
     10 C10        -7.9226    2.1354   52.5757 C.ar    1  ZINC000033150761   -0.0700
     11 C11        -6.7707    1.7105   51.9307 C.ar    1  ZINC000033150761   -0.1500
     12 C12        -6.6694    0.3928   51.5213 C.ar    1  ZINC000033150761    0.1100
     13 N13        -7.6482   -0.4604   51.7409 N.ar    1  ZINC000033150761   -0.4500
     14 N14        -9.8771   -2.3136   52.1143 N.2     1  ZINC000033150761   -0.3600
     15 O15       -10.8931   -2.8683   52.4766 O.3     1  ZINC000033150761    0.0900
     16 N16       -11.1222   -3.3806   55.9739 N.am    1  ZINC000033150761   -0.6200
     17 C17       -10.5913   -3.3947   57.2579 C.2     1  ZINC000033150761    0.2700
     18 N18       -10.5555   -2.3807   58.0652 N.2     1  ZINC000033150761   -0.5000
     19 C19       -10.0091   -2.5787   59.2566 C.2     1  ZINC000033150761    0.1200
     20 C20        -9.9074   -1.5014   60.2711 C.ar    1  ZINC000033150761    0.0000
     21 C21        -9.0414   -1.6409   61.3539 C.ar    1  ZINC000033150761   -0.0800
     22 C22        -8.9488   -0.6363   62.2960 C.ar    1  ZINC000033150761   -0.1200
     23 C23        -9.7147    0.5099   62.1673 C.ar    1  ZINC000033150761    0.0700
     24 F24        -9.6205    1.4904   63.0918 F       1  ZINC000033150761   -0.1300
     25 C25       -10.5785    0.6545   61.0907 C.ar    1  ZINC000033150761    0.0700
     26 F26       -11.3235    1.7749   60.9690 F       1  ZINC000033150761   -0.1300
     27 C27       -10.6735   -0.3441   60.1409 C.ar    1  ZINC000033150761   -0.1000
     28 C28        -9.5537   -3.8240   59.4822 C.2     1  ZINC000033150761   -0.2800
     29 S29        -9.8689   -4.7944   58.0454 S.3     1  ZINC000033150761    0.2200
     30 H30       -12.3595   -4.3984   53.7211 H       1  ZINC000033150761    0.1200
     31 H31       -13.9875   -4.1505   54.3969 H       1  ZINC000033150761    0.1200
     32 H32       -13.7575   -2.2285   53.0911 H       1  ZINC000033150761    0.1300
     33 H33       -13.1515   -1.6423   54.6587 H       1  ZINC000033150761    0.1200
     34 H34        -9.8488    1.5141   53.2867 H       1  ZINC000033150761    0.1400
     35 H35        -8.0259    3.1589   52.9045 H       1  ZINC000033150761    0.1500
     36 H36        -5.9607    2.4016   51.7496 H       1  ZINC000033150761    0.1400
     37 H37        -5.7739    0.0583   51.0188 H       1  ZINC000033150761    0.1700
     38 H38       -10.5797   -3.0802   55.2280 H       1  ZINC000033150761    0.4300
     39 H39        -8.4435   -2.5344   61.4562 H       1  ZINC000033150761    0.1400
     40 H40        -8.2779   -0.7447   63.1354 H       1  ZINC000033150761    0.1500
     41 H41       -11.3457   -0.2317   59.3030 H       1  ZINC000033150761    0.1600
     42 H42        -9.0806   -4.1705   60.3891 H       1  ZINC000033150761    0.1800
@<TRIPOS>BOND
     1     1     2    2
     2     2     3    1
     3     2    16   am
     4     3     4    1
     5     3    30    1
     6     3    31    1
     7     4     5    1
     8     4    32    1
     9     4    33    1
    10     5    15    1
    11     5     6    2
    12     6     7    1
    13     7     8    1
    14     7    14    2
    15     8    13   ar
    16     8     9   ar
    17     9    10   ar
    18     9    34    1
    19    10    11   ar
    20    10    35    1
    21    11    12   ar
    22    11    36    1
    23    12    13   ar
    24    12    37    1
    25    14    15    1
    26    16    17    1
    27    16    38    1
    28    17    29    1
    29    17    18    2
    30    18    19    1
    31    19    20    1
    32    19    28    2
    33    20    27   ar
    34    20    21   ar
    35    21    22   ar
    36    21    39    1
    37    22    23   ar
    38    22    40    1
    39    23    24    1
    40    23    25   ar
    41    25    26    1
    42    25    27   ar
    43    27    41    1
    44    28    29    1
    45    28    42    1
@<TRIPOS>SUBSTRUCTURE
     1 ZINC000033150761        1 TEMP              0 ****  ****    0 ROOT


##########                                Name:    ZINC000952280524
##########                DOCK_Rotatable_Bonds:                   9
##########                         Heavy_Atoms:                  25
##########                    Molecular_Weight:             348.486
##########                DOCK_Rotatable_Bonds:                   9
##########                       Formal_Charge:          -0.0100004
##########                     HBond_Acceptors:                   5
##########                        HBond_Donors:                   1
##########                         Heavy_Atoms:                  25
##########                          Grid_Score:          -38.173054
##########                     Grid_vdw_energy:          -36.124866
##########                      Grid_es_energy:           -2.048189
##########           Internal_energy_repulsive:           28.378027

@<TRIPOS>MOLECULE
ZINC000952280524
 57 59 1 0 0
SMALL
USER_CHARGES


@<TRIPOS>ATOM
      1 C1         -8.6139    3.4781   67.5299 C.3     1  ZINC000952280524   -0.1800
      2 C2         -8.1909    2.2366   66.7420 C.3     1  ZINC000952280524    0.1400
      3 C3         -6.8221    2.4797   66.1033 C.3     1  ZINC000952280524   -0.1900
      4 O4         -8.1122    1.1159   67.6251 O.3     1  ZINC000952280524   -0.5500
      5 C5         -9.2212    1.9518   65.6473 C.3     1  ZINC000952280524   -0.1200
      6 C6         -8.8039    0.7298   64.8704 C.2     1  ZINC000952280524    0.5300
      7 O7         -8.0846   -0.0998   65.3854 O.2     1  ZINC000952280524   -0.5100
      8 N8         -9.2302    0.5588   63.6033 N.am    1  ZINC000952280524   -0.6300
      9 C9        -10.1013    1.4812   62.8604 C.3     1  ZINC000952280524    0.1000
     10 C10       -10.3412    0.8628   61.4670 C.3     1  ZINC000952280524   -0.1300
     11 C11       -10.0541   -0.6439   61.7015 C.3     1  ZINC000952280524   -0.1000
     12 H12       -10.9257   -1.1472   62.1200 H       1  ZINC000952280524    0.0900
     13 C13        -9.6007   -1.3236   60.4079 C.3     1  ZINC000952280524   -0.0700
     14 C14        -9.3390   -2.8073   60.6762 C.3     1  ZINC000952280524   -0.1300
     15 C15        -8.8521   -3.4771   59.3873 C.3     1  ZINC000952280524    0.1100
     16 N16        -9.8307   -3.2199   58.3219 N.am    1  ZINC000952280524   -0.6100
     17 C17       -10.3594   -4.2382   57.6148 C.2     1  ZINC000952280524    0.5500
     18 O18       -10.0274   -5.3830   57.8560 O.2     1  ZINC000952280524   -0.5500
     19 C19       -11.3381   -3.9649   56.5511 C.2     1  ZINC000952280524   -0.2200
     20 C20       -12.4435   -4.6987   56.4600 C.2     1  ZINC000952280524   -0.0300
     21 C21       -13.4470   -4.4175   55.3714 C.3     1  ZINC000952280524   -0.1500
     22 C22       -13.7097   -2.9532   55.0140 C.3     1  ZINC000952280524   -0.1700
     23 C23       -12.9189   -3.8448   54.0545 C.3     1  ZINC000952280524   -0.1600
     24 C24       -10.2223   -1.8316   58.0425 C.3     1  ZINC000952280524    0.1000
     25 C25       -10.6939   -1.1804   59.3464 C.3     1  ZINC000952280524   -0.1300
     26 C26        -8.8950   -0.5811   62.7305 C.3     1  ZINC000952280524    0.1100
     27 H27        -8.5893    4.3495   66.8755 H       1  ZINC000952280524    0.0700
     28 H28        -9.6252    3.3390   67.9117 H       1  ZINC000952280524    0.0600
     29 H29        -7.9283    3.6303   68.3634 H       1  ZINC000952280524    0.0600
     30 H30        -6.0881    2.6825   66.8831 H       1  ZINC000952280524    0.0600
     31 H31        -6.5208    1.5952   65.5419 H       1  ZINC000952280524    0.0800
     32 H32        -6.8821    3.3345   65.4296 H       1  ZINC000952280524    0.0600
     33 H33        -8.9457    0.9042   68.0673 H       1  ZINC000952280524    0.3700
     34 H34       -10.1961    1.7776   66.1025 H       1  ZINC000952280524    0.1000
     35 H35        -9.2820    2.8070   64.9742 H       1  ZINC000952280524    0.1000
     36 H36       -11.0506    1.5965   63.3833 H       1  ZINC000952280524    0.0700
     37 H37        -9.6126    2.4500   62.7568 H       1  ZINC000952280524    0.0700
     38 H38       -11.3732    1.0140   61.1505 H       1  ZINC000952280524    0.0800
     39 H39        -9.6475    1.2783   60.7361 H       1  ZINC000952280524    0.0800
     40 H40        -8.6847   -0.8521   60.0517 H       1  ZINC000952280524    0.0800
     41 H41        -8.5770   -2.9084   61.4490 H       1  ZINC000952280524    0.0800
     42 H42       -10.2606   -3.2850   61.0087 H       1  ZINC000952280524    0.0700
     43 H43        -7.8849   -3.0625   59.1029 H       1  ZINC000952280524    0.0700
     44 H44        -8.7590   -4.5514   59.5464 H       1  ZINC000952280524    0.0900
     45 H45       -11.1589   -3.1683   55.8442 H       1  ZINC000952280524    0.1300
     46 H46       -12.6219   -5.4961   57.1661 H       1  ZINC000952280524    0.1300
     47 H47       -14.2889   -5.1077   55.3184 H       1  ZINC000952280524    0.1200
     48 H48       -14.7247   -2.6798   54.7257 H       1  ZINC000952280524    0.1000
     49 H49       -13.1567   -2.1934   55.5661 H       1  ZINC000952280524    0.1000
     50 H50       -11.8456   -3.6716   53.9755 H       1  ZINC000952280524    0.1000
     51 H51       -13.4136   -4.1581   53.1352 H       1  ZINC000952280524    0.1000
     52 H52        -9.3670   -1.2829   57.6485 H       1  ZINC000952280524    0.0700
     53 H53       -11.0333   -1.8203   57.3143 H       1  ZINC000952280524    0.0900
     54 H54       -11.6027   -1.6734   59.6915 H       1  ZINC000952280524    0.0700
     55 H55       -10.8962   -0.1235   59.1728 H       1  ZINC000952280524    0.0800
     56 H56        -7.9457   -0.4105   62.2227 H       1  ZINC000952280524    0.0700
     57 H57        -8.8544   -1.5015   63.3129 H       1  ZINC000952280524    0.0800
@<TRIPOS>BOND
     1     1     2    1
     2     1    27    1
     3     1    28    1
     4     1    29    1
     5     2     3    1
     6     2     4    1
     7     2     5    1
     8     3    30    1
     9     3    31    1
    10     3    32    1
    11     4    33    1
    12     5     6    1
    13     5    34    1
    14     5    35    1
    15     6     7    2
    16     6     8   am
    17     8    26    1
    18     8     9    1
    19     9    10    1
    20     9    36    1
    21     9    37    1
    22    10    11    1
    23    10    38    1
    24    10    39    1
    25    11    12    1
    26    11    13    1
    27    11    26    1
    28    13    25    1
    29    13    14    1
    30    13    40    1
    31    14    15    1
    32    14    41    1
    33    14    42    1
    34    15    16    1
    35    15    43    1
    36    15    44    1
    37    16    17   am
    38    16    24    1
    39    17    18    2
    40    17    19    1
    41    19    20    2
    42    19    45    1
    43    20    21    1
    44    20    46    1
    45    21    23    1
    46    21    22    1
    47    21    47    1
    48    22    23    1
    49    22    48    1
    50    22    49    1
    51    23    50    1
    52    23    51    1
    53    24    25    1
    54    24    52    1
    55    24    53    1
    56    25    54    1
    57    25    55    1
    58    26    56    1
    59    26    57    1
@<TRIPOS>SUBSTRUCTURE
     1 ZINC000952280524        1 TEMP              0 ****  ****    0 ROOT


##########                                Name:    ZINC000822449555
##########                DOCK_Rotatable_Bonds:                   5
##########                         Heavy_Atoms:                  27
##########                    Molecular_Weight:             366.383
##########                DOCK_Rotatable_Bonds:                   5
##########                       Formal_Charge:          -0.0100009
##########                     HBond_Acceptors:                  10
##########                        HBond_Donors:                   2
##########                         Heavy_Atoms:                  27
##########                          Grid_Score:          -38.080948
##########                     Grid_vdw_energy:          -35.965683
##########                      Grid_es_energy:           -2.115263
##########           Internal_energy_repulsive:           10.219174

@<TRIPOS>MOLECULE
ZINC000822449555
 45 48 1 0 0
SMALL
USER_CHARGES


@<TRIPOS>ATOM
      1 C1         -9.4471   -4.2185   58.9009 C.3     1  ZINC000822449555   -0.1100
      2 C2        -10.1266   -3.2205   57.9988 C.ar    1  ZINC000822449555    0.1400
      3 N3        -10.5682   -3.6050   56.8167 N.ar    1  ZINC000822449555   -0.5000
      4 C4        -11.1708   -2.7631   55.9918 C.ar    1  ZINC000822449555    0.3000
      5 N5        -11.6201   -3.2152   54.7540 N.3     1  ZINC000822449555   -0.4700
      6 C6        -11.0220   -2.4364   53.6598 C.3     1  ZINC000822449555    0.0200
      7 C7        -11.4952   -3.0037   52.3189 C.3     1  ZINC000822449555    0.0600
      8 O8        -12.9246   -2.9863   52.2774 O.3     1  ZINC000822449555   -0.3800
      9 C9        -13.5404   -3.7356   53.3286 C.3     1  ZINC000822449555    0.0600
     10 C10       -13.0879   -3.1757   54.6797 C.3     1  ZINC000822449555    0.0300
     11 C11       -11.3605   -1.4322   56.3478 C.ar    1  ZINC000822449555   -0.1700
     12 C12       -10.9105   -0.9932   57.5795 C.ar    1  ZINC000822449555   -0.0500
     13 C13       -10.2853   -1.9099   58.4233 C.ar    1  ZINC000822449555    0.0600
     14 N14        -9.8136   -1.5094   59.6804 N.am    1  ZINC000822449555   -0.6600
     15 C15       -10.6492   -0.9174   60.5565 C.2     1  ZINC000822449555    0.5700
     16 O16       -11.8125   -0.7306   60.2560 O.2     1  ZINC000822449555   -0.5100
     17 C17       -10.1518   -0.4953   61.8816 C.ar    1  ZINC000822449555   -0.1800
     18 C18       -10.9785    0.2253   62.7542 C.ar    1  ZINC000822449555   -0.0100
     19 C19       -10.4693    0.5982   63.9827 C.ar    1  ZINC000822449555   -0.1300
     20 C20        -9.1605    0.2483   64.3117 C.ar    1  ZINC000822449555    0.2300
     21 C21        -8.6060    0.6448   65.6290 C.2     1  ZINC000822449555    0.2100
     22 N22        -9.2308    1.3153   66.5773 N.2     1  ZINC000822449555   -0.2500
     23 N23        -8.4129    1.4594   67.5625 N.pl3   1  ZINC000822449555   -0.2200
     24 N24        -7.2901    0.9020   67.2693 N.2     1  ZINC000822449555   -0.0400
     25 N25        -7.3735    0.3863   66.0900 N.2     1  ZINC000822449555   -0.2500
     26 N26        -8.4041   -0.4357   63.4616 N.ar    1  ZINC000822449555   -0.4500
     27 C27        -8.8531   -0.8139   62.2849 C.ar    1  ZINC000822449555    0.1400
     28 H28       -10.1917   -4.7032   59.5324 H       1  ZINC000822449555    0.0800
     29 H29        -8.9401   -4.9696   58.2951 H       1  ZINC000822449555    0.0800
     30 H30        -8.7183   -3.7045   59.5276 H       1  ZINC000822449555    0.0700
     31 H31       -11.3309   -1.3945   53.7436 H       1  ZINC000822449555    0.0600
     32 H32        -9.9355   -2.5006   53.7191 H       1  ZINC000822449555    0.1000
     33 H33       -11.1000   -2.3944   51.5062 H       1  ZINC000822449555    0.1100
     34 H34       -11.1404   -4.0289   52.2119 H       1  ZINC000822449555    0.0600
     35 H35       -14.6243   -3.6556   53.2459 H       1  ZINC000822449555    0.1000
     36 H36       -13.2450   -4.7819   53.2509 H       1  ZINC000822449555    0.0600
     37 H37       -13.5093   -3.7794   55.4835 H       1  ZINC000822449555    0.1000
     38 H38       -13.4298   -2.1455   54.7797 H       1  ZINC000822449555    0.0600
     39 H39       -11.8528   -0.7499   55.6706 H       1  ZINC000822449555    0.1400
     40 H40       -11.0438    0.0349   57.8823 H       1  ZINC000822449555    0.1500
     41 H41        -8.8855   -1.6585   59.9200 H       1  ZINC000822449555    0.4100
     42 H42       -11.9887    0.4832   62.4727 H       1  ZINC000822449555    0.1600
     43 H43       -11.0779    1.1547   64.6801 H       1  ZINC000822449555    0.1600
     44 H44        -8.6119    1.9161   68.3947 H       1  ZINC000822449555    0.4800
     45 H45        -8.2082   -1.3694   61.6202 H       1  ZINC000822449555    0.1700
@<TRIPOS>BOND
     1     1     2    1
     2     1    28    1
     3     1    29    1
     4     1    30    1
     5     2    13   ar
     6     2     3   ar
     7     3     4   ar
     8     4     5    1
     9     4    11   ar
    10     5    10    1
    11     5     6    1
    12     6     7    1
    13     6    31    1
    14     6    32    1
    15     7     8    1
    16     7    33    1
    17     7    34    1
    18     8     9    1
    19     9    10    1
    20     9    35    1
    21     9    36    1
    22    10    37    1
    23    10    38    1
    24    11    12   ar
    25    11    39    1
    26    12    13   ar
    27    12    40    1
    28    13    14    1
    29    14    15   am
    30    14    41    1
    31    15    16    2
    32    15    17    1
    33    17    27   ar
    34    17    18   ar
    35    18    19   ar
    36    18    42    1
    37    19    20   ar
    38    19    43    1
    39    20    21    1
    40    20    26   ar
    41    21    25    1
    42    21    22    2
    43    22    23    1
    44    23    24    1
    45    23    44    1
    46    24    25    2
    47    26    27   ar
    48    27    45    1
@<TRIPOS>SUBSTRUCTURE
     1 ZINC000822449555        1 TEMP              0 ****  ****    0 ROOT


##########                                Name:    ZINC001284642199
##########                DOCK_Rotatable_Bonds:                   8
##########                         Heavy_Atoms:                  25
##########                    Molecular_Weight:             346.516
##########                DOCK_Rotatable_Bonds:                   8
##########                       Formal_Charge:         -3.8743e-07
##########                     HBond_Acceptors:                   5
##########                        HBond_Donors:                   2
##########                         Heavy_Atoms:                  25
##########                          Grid_Score:          -38.057343
##########                     Grid_vdw_energy:          -37.899151
##########                      Grid_es_energy:           -0.158191
##########           Internal_energy_repulsive:           21.466833

@<TRIPOS>MOLECULE
ZINC001284642199
 59 60 1 0 0
SMALL
USER_CHARGES


@<TRIPOS>ATOM
      1 C1         -6.1456    1.2432   51.8753 C.3     1  ZINC001284642199   -0.1100
      2 C2         -7.4228    0.5014   52.1743 C.ar    1  ZINC001284642199   -0.1900
      3 C3         -7.5730   -0.8280   51.8122 C.ar    1  ZINC001284642199    0.1500
      4 N4         -8.7087   -1.4471   52.0916 N.ar    1  ZINC001284642199   -0.4900
      5 C5         -9.6887   -0.8151   52.7058 C.ar    1  ZINC001284642199    0.3100
      6 C6        -10.9659   -1.5569   53.0050 C.3     1  ZINC001284642199    0.1300
      7 N7        -10.9541   -2.0082   54.4028 N.3     1  ZINC001284642199   -0.6800
      8 C8        -11.2024   -3.4534   54.4915 C.3     1  ZINC001284642199    0.0500
      9 C9        -11.6251   -3.8117   55.9177 C.3     1  ZINC001284642199    0.1600
     10 H10       -11.1773   -4.7643   56.2008 H       1  ZINC001284642199    0.1000
     11 N11       -11.1722   -2.7663   56.8385 N.am    1  ZINC001284642199   -0.7200
     12 C12       -10.4227   -3.0910   57.9106 C.2     1  ZINC001284642199    0.5200
     13 O13       -10.1220   -4.2485   58.1122 O.2     1  ZINC001284642199   -0.5300
     14 C14        -9.9583   -2.0157   58.8589 C.3     1  ZINC001284642199   -0.1100
     15 H15        -9.0734   -1.5280   58.4499 H       1  ZINC001284642199    0.0900
     16 C16       -11.0713   -0.9820   59.0424 C.3     1  ZINC001284642199   -0.1000
     17 C17       -10.5998    0.1096   60.0051 C.3     1  ZINC001284642199   -0.1100
     18 C18       -10.2574   -0.5169   61.3584 C.3     1  ZINC001284642199   -0.0900
     19 H19       -11.1423   -1.0045   61.7673 H       1  ZINC001284642199    0.0700
     20 C20        -9.7858    0.5748   62.3211 C.3     1  ZINC001284642199   -0.1500
     21 C21        -9.1445   -1.5505   61.1748 C.3     1  ZINC001284642199   -0.1100
     22 C22        -9.6159   -2.6422   60.2121 C.3     1  ZINC001284642199   -0.1100
     23 C23       -13.1494   -3.9248   55.9846 C.3     1  ZINC001284642199   -0.0800
     24 C24       -13.6041   -5.1591   55.2030 C.3     1  ZINC001284642199   -0.1400
     25 C25       -13.5876   -4.0557   57.4446 C.3     1  ZINC001284642199   -0.1400
     26 C26       -13.7810   -2.6727   55.3729 C.3     1  ZINC001284642199   -0.1300
     27 N27        -9.5835    0.4498   53.0607 N.ar    1  ZINC001284642199   -0.5100
     28 C28        -8.4755    1.1319   52.8187 C.ar    1  ZINC001284642199    0.1500
     29 H29        -6.2194    1.7127   50.8943 H       1  ZINC001284642199    0.0800
     30 H30        -5.9843    2.0093   52.6336 H       1  ZINC001284642199    0.0700
     31 H31        -5.3094    0.5441   51.8814 H       1  ZINC001284642199    0.0700
     32 H32        -6.7739   -1.3515   51.3083 H       1  ZINC001284642199    0.1700
     33 H33       -11.0476   -2.4206   52.3450 H       1  ZINC001284642199    0.1000
     34 H34       -11.8167   -0.8949   52.8440 H       1  ZINC001284642199    0.0600
     35 H35       -11.6225   -1.4920   54.9551 H       1  ZINC001284642199    0.3400
     36 H36       -10.2916   -3.9949   54.2356 H       1  ZINC001284642199    0.0900
     37 H37       -11.9962   -3.7290   53.7973 H       1  ZINC001284642199    0.0400
     38 H38       -11.4116   -1.8403   56.6767 H       1  ZINC001284642199    0.3900
     39 H39       -11.9563   -1.4697   59.4513 H       1  ZINC001284642199    0.0700
     40 H40       -11.3154   -0.5357   58.0784 H       1  ZINC001284642199    0.0700
     41 H41       -11.3927    0.8460   60.1359 H       1  ZINC001284642199    0.0700
     42 H42        -9.7149    0.5973   59.5962 H       1  ZINC001284642199    0.0600
     43 H43       -10.5788    1.3112   62.4519 H       1  ZINC001284642199    0.0500
     44 H44        -9.5419    0.1285   63.2851 H       1  ZINC001284642199    0.0500
     45 H45        -8.9010    1.0624   61.9122 H       1  ZINC001284642199    0.0500
     46 H46        -8.2595   -1.0629   60.7658 H       1  ZINC001284642199    0.0600
     47 H47        -8.9004   -1.9968   62.1388 H       1  ZINC001284642199    0.0700
     48 H48       -10.5008   -3.1298   60.6211 H       1  ZINC001284642199    0.0700
     49 H49        -8.8230   -3.3785   60.0813 H       1  ZINC001284642199    0.0600
     50 H50       -13.1540   -6.0511   55.6388 H       1  ZINC001284642199    0.0600
     51 H51       -14.6900   -5.2397   55.2506 H       1  ZINC001284642199    0.0600
     52 H52       -13.2919   -5.0658   54.1628 H       1  ZINC001284642199    0.0500
     53 H53       -13.2638   -3.1764   58.0014 H       1  ZINC001284642199    0.0600
     54 H54       -14.6736   -4.1363   57.4923 H       1  ZINC001284642199    0.0600
     55 H55       -13.1376   -4.9478   57.8804 H       1  ZINC001284642199    0.0600
     56 H56       -13.4690   -2.5794   54.3328 H       1  ZINC001284642199    0.0500
     57 H57       -14.8671   -2.7533   55.4205 H       1  ZINC001284642199    0.0500
     58 H58       -13.4573   -1.7934   55.9297 H       1  ZINC001284642199    0.0600
     59 H59        -8.3944    2.1672   53.1155 H       1  ZINC001284642199    0.1700
@<TRIPOS>BOND
     1     1     2    1
     2     1    29    1
     3     1    30    1
     4     1    31    1
     5     2    28   ar
     6     2     3   ar
     7     3     4   ar
     8     3    32    1
     9     4     5   ar
    10     5     6    1
    11     5    27   ar
    12     6     7    1
    13     6    33    1
    14     6    34    1
    15     7     8    1
    16     7    35    1
    17     8     9    1
    18     8    36    1
    19     8    37    1
    20     9    10    1
    21     9    11    1
    22     9    23    1
    23    11    12   am
    24    11    38    1
    25    12    13    2
    26    12    14    1
    27    14    15    1
    28    14    22    1
    29    14    16    1
    30    16    17    1
    31    16    39    1
    32    16    40    1
    33    17    18    1
    34    17    41    1
    35    17    42    1
    36    18    19    1
    37    18    20    1
    38    18    21    1
    39    20    43    1
    40    20    44    1
    41    20    45    1
    42    21    22    1
    43    21    46    1
    44    21    47    1
    45    22    48    1
    46    22    49    1
    47    23    24    1
    48    23    25    1
    49    23    26    1
    50    24    50    1
    51    24    51    1
    52    24    52    1
    53    25    53    1
    54    25    54    1
    55    25    55    1
    56    26    56    1
    57    26    57    1
    58    26    58    1
    59    27    28   ar
    60    28    59    1
@<TRIPOS>SUBSTRUCTURE
     1 ZINC001284642199        1 TEMP              0 ****  ****    0 ROOT


##########                                Name:     oleObject80.pdb
##########                DOCK_Rotatable_Bonds:                  14
##########                         Heavy_Atoms:                  51
##########                    Molecular_Weight:             703.283
##########                DOCK_Rotatable_Bonds:                  14
##########                       Formal_Charge:         0.000299793
##########                     HBond_Acceptors:                  10
##########                        HBond_Donors:                   3
##########                         Heavy_Atoms:                  51
##########                          Grid_Score:          -38.039322
##########                     Grid_vdw_energy:          -38.504440
##########                      Grid_es_energy:            0.465119
##########           Internal_energy_repulsive:           58.917950

@<TRIPOS>MOLECULE
oleObject80.pdb
 94 99 1 0 0
SMALL
NO_CHARGES


@<TRIPOS>ATOM
      1 C         -16.3762   -2.5644   45.3931 C.ar    1  UNL        -0.0620
      2 C         -17.1816   -1.4774   45.7608 C.ar    1  UNL        -0.0590
      3 C         -16.9251   -0.7591   46.9449 C.ar    1  UNL        -0.0456
      4 C         -15.8410   -1.1386   47.7767 C.ar    1  UNL        -0.0185
      5 C         -15.0379   -2.2350   47.3909 C.ar    1  UNL        -0.0565
      6 C         -15.3024   -2.9423   46.2090 C.ar    1  UNL        -0.0619
      7 C         -15.5421   -0.3776   49.0809 C.3     1  UNL         0.0931
      8 C         -15.6509    1.1518   48.9471 C.ar    1  UNL         0.0683
      9 C         -14.6309    1.9171   48.3269 C.ar    1  UNL        -0.0272
     10 C         -14.7952    3.3127   48.2454 C.ar    1  UNL        -0.0559
     11 C         -15.9562    3.8968   48.7717 C.ar    1  UNL        -0.0435
     12 C         -16.9191    3.0643   49.3604 C.ar    1  UNL         0.0272
     13 N         -16.7712    1.7290   49.4431 N.ar    1  UNL        -0.2587
     14 C         -13.3724    1.2799   47.7482 C.3     1  UNL        -0.0379
     15 N         -16.2482   -0.9206   50.2771 N.am    1  UNL        -0.2918
     16 C         -15.6763   -0.8120   51.5498 C.2     1  UNL         0.2180
     17 O         -16.1041   -1.4719   52.4829 O.2     1  UNL        -0.2772
     18 C         -14.2979   -0.1114   51.6475 C.3     1  UNL         0.0385
     19 C         -13.1262   -1.1127   51.4974 C.3     1  UNL        -0.0289
     20 C         -12.9590   -1.9944   52.7519 C.3     1  UNL        -0.0010
     21 N         -12.7531   -1.1785   53.9677 N.4     1  UNL        -0.3010
     22 C         -13.8402   -0.1973   54.2002 C.3     1  UNL        -0.0010
     23 C         -14.1172    0.6931   52.9623 C.3     1  UNL        -0.0289
     24 C         -12.4399   -2.0249   55.1404 C.3     1  UNL         0.0222
     25 C         -13.5393   -3.0571   55.4652 C.3     1  UNL         0.0661
     26 O         -14.5962   -2.3690   56.1576 O.3     1  UNL        -0.3432
     27 C         -14.4958   -1.9334   57.4649 C.ar    1  UNL         0.0937
     28 C         -14.2089   -0.5915   57.7876 C.ar    1  UNL        -0.0284
     29 C         -14.1143   -0.1920   59.1309 C.ar    1  UNL        -0.0381
     30 C         -14.3170   -1.1153   60.1709 C.ar    1  UNL         0.0319
     31 C         -14.5817   -2.4600   59.8467 C.ar    1  UNL        -0.0194
     32 C         -14.6761   -2.8654   58.5052 C.ar    1  UNL         0.0727
     33 CL        -15.0116   -4.5505   58.1535 Cl      1  UNL        -0.0814
     34 N         -14.1962   -0.6788   61.4890 N.pl3   1  UNL        -0.3136
     35 C         -13.1488   -0.0553   62.1664 C.ar    1  UNL         0.0489
     36 C         -13.4334    0.9330   63.1253 C.ar    1  UNL         0.0488
     37 N         -12.4811    1.5691   63.8363 N.ar    1  UNL        -0.2543
     38 C         -11.1794    1.2557   63.6547 C.ar    1  UNL         0.0703
     39 C         -10.8100    0.2555   62.7181 C.ar    1  UNL        -0.0339
     40 C         -11.8001   -0.4065   61.9744 C.ar    1  UNL        -0.0371
     41 C         -10.1747    2.0046   64.4892 C.ar    1  UNL         0.0009
     42 C          -9.1124    1.3366   65.1525 C.ar    1  UNL        -0.0402
     43 C          -8.1652    2.0267   65.9375 C.ar    1  UNL         0.0375
     44 C          -8.2813    3.4263   66.0660 C.ar    1  UNL        -0.0496
     45 C          -9.3234    4.1117   65.4263 C.ar    1  UNL        -0.0608
     46 C         -10.2582    3.4114   64.6505 C.ar    1  UNL        -0.0528
     47 C          -7.0611    1.2531   66.6171 C.2     1  UNL         0.2403
     48 O          -7.0579    0.0368   66.6789 O.2     1  UNL        -0.2722
     49 N          -6.0302    1.9762   67.1791 N.am    1  UNL        -0.3251
     50 C         -17.5967   -1.4933   50.0652 C.3     1  UNL         0.0037
     51 C         -17.8327    0.4176   47.2918 C.3     1  UNL        -0.0394
     52 H         -16.5830   -3.1106   44.4772 H       1  UNL         0.0623
     53 H         -18.0106   -1.1923   45.1191 H       1  UNL         0.0626
     54 H         -14.1946   -2.5442   48.0003 H       1  UNL         0.0627
     55 H         -14.6738   -3.7819   45.9262 H       1  UNL         0.0623
     56 H         -14.4791   -0.5569   49.2611 H       1  UNL         0.0626
     57 H         -14.0357    3.9356   47.7814 H       1  UNL         0.0627
     58 H         -16.1082    4.9709   48.7225 H       1  UNL         0.0639
     59 H         -17.8360    3.4777   49.7785 H       1  UNL         0.0840
     60 H         -12.7439    0.8592   48.5432 H       1  UNL         0.0280
     61 H         -12.7642    2.0107   47.2008 H       1  UNL         0.0280
     62 H         -13.6210    0.4734   47.0474 H       1  UNL         0.0280
     63 H         -14.2377    0.6156   50.8293 H       1  UNL         0.0402
     64 H         -12.1956   -0.5542   51.3331 H       1  UNL         0.0288
     65 H         -13.2654   -1.7486   50.6165 H       1  UNL         0.0288
     66 H         -12.0990   -2.6589   52.5980 H       1  UNL         0.0431
     67 H         -13.8499   -2.6260   52.8709 H       1  UNL         0.0431
     68 H         -13.5846    0.4643   55.0361 H       1  UNL         0.0431
     69 H         -14.7577   -0.7308   54.4780 H       1  UNL         0.0431
     70 H         -13.2681    1.3775   52.8374 H       1  UNL         0.0288
     71 H         -14.9982    1.3215   53.1444 H       1  UNL         0.0288
     72 H         -12.3130   -1.3846   56.0231 H       1  UNL         0.0455
     73 H         -11.4911   -2.5526   54.9771 H       1  UNL         0.0455
     74 H         -13.1337   -3.8552   56.0989 H       1  UNL         0.0586
     75 H         -13.9174   -3.4936   54.5320 H       1  UNL         0.0586
     76 H         -14.0556    0.1492   57.0097 H       1  UNL         0.0652
     77 H         -13.8914    0.8455   59.3644 H       1  UNL         0.0644
     78 H         -14.6949   -3.2023   60.6304 H       1  UNL         0.0659
     79 H         -15.0133   -0.8526   62.0601 H       1  UNL         0.1528
     80 H         -14.4609    1.2337   63.3257 H       1  UNL         0.0861
     81 H          -9.7701   -0.0054   62.5555 H       1  UNL         0.0646
     82 H         -11.5169   -1.1893   61.2778 H       1  UNL         0.0644
     83 H          -9.0282    0.2583   65.0733 H       1  UNL         0.0638
     84 H          -7.5729    3.9950   66.6602 H       1  UNL         0.0631
     85 H          -9.4071    5.1899   65.5306 H       1  UNL         0.0623
     86 H         -11.0499    3.9728   64.1625 H       1  UNL         0.0630
     87 H          -5.2705    1.4976   67.6440 H       1  UNL         0.1458
     88 H          -6.0479    2.9862   67.1164 H       1  UNL         0.1458
     89 H         -17.8438   -1.5718   49.0013 H       1  UNL         0.0433
     90 H         -18.3553   -0.8583   50.5374 H       1  UNL         0.0433
     91 H         -17.6419   -2.4966   50.5068 H       1  UNL         0.0433
     92 H         -18.5890    0.5897   46.5159 H       1  UNL         0.0280
     93 H         -17.2583    1.3462   47.3938 H       1  UNL         0.0280
     94 H         -18.3681    0.2423   48.2331 H       1  UNL         0.0280
@<TRIPOS>BOND
     1     1     2   ar
     2     1     6   ar
     3     1    52    1
     4     2     3   ar
     5     2    53    1
     6     3     4   ar
     7     3    51    1
     8     4     5   ar
     9     4     7    1
    10     5     6   ar
    11     5    54    1
    12     6    55    1
    13     7     8    1
    14     7    15    1
    15     7    56    1
    16     8     9   ar
    17     8    13   ar
    18     9    10   ar
    19     9    14    1
    20    10    11   ar
    21    10    57    1
    22    11    12   ar
    23    11    58    1
    24    12    13   ar
    25    12    59    1
    26    14    60    1
    27    14    61    1
    28    14    62    1
    29    15    16   am
    30    15    50    1
    31    16    17    2
    32    16    18    1
    33    18    19    1
    34    18    23    1
    35    18    63    1
    36    19    20    1
    37    19    64    1
    38    19    65    1
    39    20    21    1
    40    20    66    1
    41    20    67    1
    42    21    22    1
    43    21    24    1
    44    22    23    1
    45    22    68    1
    46    22    69    1
    47    23    70    1
    48    23    71    1
    49    24    25    1
    50    24    72    1
    51    24    73    1
    52    25    26    1
    53    25    74    1
    54    25    75    1
    55    26    27    1
    56    27    28   ar
    57    27    32   ar
    58    28    29   ar
    59    28    76    1
    60    29    30   ar
    61    29    77    1
    62    30    31   ar
    63    30    34    1
    64    31    32   ar
    65    31    78    1
    66    32    33    1
    67    34    35    1
    68    34    79    1
    69    35    36   ar
    70    35    40   ar
    71    36    37   ar
    72    36    80    1
    73    37    38   ar
    74    38    39   ar
    75    38    41    1
    76    39    40   ar
    77    39    81    1
    78    40    82    1
    79    41    42   ar
    80    41    46   ar
    81    42    43   ar
    82    42    83    1
    83    43    44   ar
    84    43    47    1
    85    44    45   ar
    86    44    84    1
    87    45    46   ar
    88    45    85    1
    89    46    86    1
    90    47    48    2
    91    47    49   am
    92    49    87    1
    93    49    88    1
    94    50    89    1
    95    50    90    1
    96    50    91    1
    97    51    92    1
    98    51    93    1
    99    51    94    1
@<TRIPOS>SUBSTRUCTURE
     1 UNL         1 TEMP              0 ****  ****    0 ROOT


##########                                Name:    ZINC000437192871
##########                DOCK_Rotatable_Bonds:                   9
##########                         Heavy_Atoms:                  28
##########                    Molecular_Weight:             423.298
##########                DOCK_Rotatable_Bonds:                   9
##########                       Formal_Charge:         -8.9407e-08
##########                     HBond_Acceptors:                   9
##########                        HBond_Donors:                   1
##########                         Heavy_Atoms:                  28
##########                          Grid_Score:          -38.002716
##########                     Grid_vdw_energy:          -36.533569
##########                      Grid_es_energy:           -1.469146
##########           Internal_energy_repulsive:           14.066206

@<TRIPOS>MOLECULE
ZINC000437192871
 48 50 1 0 0
SMALL
USER_CHARGES


@<TRIPOS>ATOM
      1 C1        -13.7508   -4.5386   55.5534 C.3     1  ZINC000437192871   -0.1700
      2 C2        -13.6460   -4.6132   57.0780 C.3     1  ZINC000437192871    0.1300
      3 N3        -12.2624   -4.3559   57.4856 N.pl3   1  ZINC000437192871   -0.3600
      4 C4        -11.7377   -3.1527   57.7983 C.2     1  ZINC000437192871    0.0700
      5 C5        -10.4369   -3.3409   58.1199 C.2     1  ZINC000437192871   -0.2700
      6 C6         -9.4621   -2.2694   58.5352 C.3     1  ZINC000437192871    0.1900
      7 N7        -10.0881   -1.4009   59.5354 N.am    1  ZINC000437192871   -0.6000
      8 C8        -10.4127   -0.0124   59.1996 C.3     1  ZINC000437192871    0.1100
      9 C9         -9.1985    0.6518   58.5472 C.3     1  ZINC000437192871    0.0600
     10 O10        -9.4408    2.0529   58.4053 O.3     1  ZINC000437192871   -0.5600
     11 C11       -10.3652   -1.8795   60.7645 C.2     1  ZINC000437192871    0.6000
     12 O12       -10.0959   -3.0322   61.0433 O.2     1  ZINC000437192871   -0.5000
     13 C13       -10.9945   -1.0064   61.7700 C.2     1  ZINC000437192871   -0.2200
     14 C14       -10.3989   -0.3087   62.7903 C.2     1  ZINC000437192871    0.0100
     15 C15        -8.9291   -0.2767   63.1221 C.3     1  ZINC000437192871   -0.0800
     16 O16       -11.3761    0.3366   63.4312 O.3     1  ZINC000437192871    0.1100
     17 N17       -12.4693    0.1401   62.9601 N.2     1  ZINC000437192871   -0.3200
     18 C18       -12.4230   -0.6601   61.9252 C.2     1  ZINC000437192871    0.0800
     19 C19       -13.5591   -1.1257   61.0940 C.ar    1  ZINC000437192871   -0.0200
     20 C20       -14.0059   -2.4419   61.1946 C.ar    1  ZINC000437192871   -0.0700
     21 C21       -15.0639   -2.8703   60.4193 C.ar    1  ZINC000437192871   -0.1000
     22 C22       -15.6821   -1.9954   59.5422 C.ar    1  ZINC000437192871   -0.0100
     23 Cl23      -17.0131   -2.5414   58.5704 Cl      1  ZINC000437192871   -0.0500
     24 C24       -15.2431   -0.6867   59.4376 C.ar    1  ZINC000437192871   -0.1100
     25 C25       -14.1885   -0.2460   60.2126 C.ar    1  ZINC000437192871    0.0000
     26 Cl26      -13.6388    1.3954   60.0814 Cl      1  ZINC000437192871   -0.0300
     27 C27       -10.1571   -4.7061   57.9995 C.2     1  ZINC000437192871    0.0600
     28 N28       -11.2523   -5.3163   57.6251 N.2     1  ZINC000437192871   -0.2900
     29 H29       -14.7801   -4.7301   55.2502 H       1  ZINC000437192871    0.0800
     30 H30       -13.4514   -3.5461   55.2167 H       1  ZINC000437192871    0.0600
     31 H31       -13.0954   -5.2867   55.1072 H       1  ZINC000437192871    0.0700
     32 H32       -14.3013   -3.8651   57.5242 H       1  ZINC000437192871    0.1000
     33 H33       -13.9453   -5.6057   57.4147 H       1  ZINC000437192871    0.0900
     34 H34       -12.2620   -2.2084   57.7927 H       1  ZINC000437192871    0.1600
     35 H35        -8.5727   -2.7329   58.9622 H       1  ZINC000437192871    0.0900
     36 H36        -9.1808   -1.6769   57.6647 H       1  ZINC000437192871    0.0800
     37 H37       -11.2535    0.0066   58.5061 H       1  ZINC000437192871    0.1000
     38 H38       -10.6785    0.5285   60.1078 H       1  ZINC000437192871    0.1000
     39 H39        -8.3196    0.4966   59.1730 H       1  ZINC000437192871    0.0600
     40 H40        -9.0274    0.2113   57.5649 H       1  ZINC000437192871    0.0500
     41 H41        -9.5755    2.5156   59.2437 H       1  ZINC000437192871    0.3800
     42 H42        -8.4692    0.5918   62.6506 H       1  ZINC000437192871    0.1000
     43 H43        -8.8020   -0.2136   64.2028 H       1  ZINC000437192871    0.0900
     44 H44        -8.4534   -1.1851   62.7526 H       1  ZINC000437192871    0.0900
     45 H45       -13.5245   -3.1257   61.8781 H       1  ZINC000437192871    0.1600
     46 H46       -15.4103   -3.8903   60.4966 H       1  ZINC000437192871    0.1500
     47 H47       -15.7287   -0.0082   58.7519 H       1  ZINC000437192871    0.1500
     48 H48        -9.2032   -5.1760   58.1879 H       1  ZINC000437192871    0.1800
@<TRIPOS>BOND
     1     1     2    1
     2     1    29    1
     3     1    30    1
     4     1    31    1
     5     2     3    1
     6     2    32    1
     7     2    33    1
     8     3    28    1
     9     3     4    1
    10     4     5    2
    11     4    34    1
    12     5     6    1
    13     5    27    1
    14     6     7    1
    15     6    35    1
    16     6    36    1
    17     7     8    1
    18     7    11   am
    19     8     9    1
    20     8    37    1
    21     8    38    1
    22     9    10    1
    23     9    39    1
    24     9    40    1
    25    10    41    1
    26    11    12    2
    27    11    13    1
    28    13    18    1
    29    13    14    2
    30    14    15    1
    31    14    16    1
    32    15    42    1
    33    15    43    1
    34    15    44    1
    35    16    17    1
    36    17    18    2
    37    18    19    1
    38    19    25   ar
    39    19    20   ar
    40    20    21   ar
    41    20    45    1
    42    21    22   ar
    43    21    46    1
    44    22    23    1
    45    22    24   ar
    46    24    25   ar
    47    24    47    1
    48    25    26    1
    49    27    28    2
    50    27    48    1
@<TRIPOS>SUBSTRUCTURE
     1 ZINC000437192871        1 TEMP              0 ****  ****    0 ROOT


##########                                Name:    ZINC000193795672
##########                DOCK_Rotatable_Bonds:                  10
##########                         Heavy_Atoms:                  23
##########                    Molecular_Weight:              332.47
##########                DOCK_Rotatable_Bonds:                  10
##########                       Formal_Charge:        -2.98023e-07
##########                     HBond_Acceptors:                   6
##########                        HBond_Donors:                   3
##########                         Heavy_Atoms:                  23
##########                          Grid_Score:          -37.945911
##########                     Grid_vdw_energy:          -38.424469
##########                      Grid_es_energy:            0.478558
##########           Internal_energy_repulsive:            9.562596

@<TRIPOS>MOLECULE
ZINC000193795672
 47 48 1 0 0
SMALL
USER_CHARGES


@<TRIPOS>ATOM
      1 C1        -10.2875    1.2517   66.1476 C.3     1  <0>        -0.1000
      2 C2         -9.9253    0.6219   64.8272 C.ar    1  <0>        -0.2000
      3 C3        -10.7878    0.7198   63.7436 C.ar    1  <0>        -0.0300
      4 C4        -10.4172    0.1279   62.5494 C.ar    1  <0>        -0.2400
      5 C5         -9.2002   -0.5413   62.4750 C.ar    1  <0>         0.4000
      6 N6         -8.8154   -1.1405   61.2812 N.pl3   1  <0>        -0.7300
      7 C7         -9.5252   -2.3260   60.7945 C.3     1  <0>         0.1300
      8 C8         -8.5864   -3.1593   59.9198 C.3     1  <0>        -0.1400
      9 C9         -9.3976   -4.2077   59.1558 C.3     1  <0>         0.1400
     10 N10       -10.4505   -3.5431   58.3838 N.am    1  <0>        -0.7500
     11 C11       -11.2554   -4.2661   57.5803 C.2     1  <0>         0.7100
     12 O12       -11.1088   -5.4703   57.4974 O.2     1  <0>        -0.5900
     13 N13       -12.2230   -3.6545   56.8688 N.am    1  <0>        -0.7400
     14 C14       -13.0968   -4.4402   55.9941 C.3     1  <0>         0.1700
     15 H15       -12.5001   -5.1656   55.4411 H       1  <0>         0.0900
     16 C16       -14.1379   -5.1756   56.8405 C.3     1  <0>        -0.1700
     17 C17       -13.8061   -3.5073   55.0104 C.3     1  <0>        -0.0600
     18 C18       -12.8409   -3.0870   53.9319 C.2     1  <0>        -0.1700
     19 C19       -13.1749   -2.7845   52.6765 C.2     1  <0>        -0.1400
     20 C20       -12.1154   -2.4241   51.8618 C.2     1  <0>        -0.1300
     21 C21       -10.9210   -2.4339   52.4557 C.2     1  <0>        -0.2100
     22 S22       -11.1030   -2.9129   54.1383 S.3     1  <0>         0.0900
     23 N23        -8.4045   -0.6123   63.5312 N.ar    1  <0>        -0.5400
     24 C24        -8.7299   -0.0532   64.6812 C.ar    1  <0>         0.1500
     25 H25        -9.9172    2.2765   66.1750 H       1  <0>         0.0700
     26 H26       -11.3712    1.2538   66.2641 H       1  <0>         0.0600
     27 H27        -9.8359    0.6804   66.9586 H       1  <0>         0.0700
     28 H28       -11.7270    1.2457   63.8312 H       1  <0>         0.1300
     29 H29       -11.0645    0.1844   61.6865 H       1  <0>         0.1300
     30 H30        -8.0768   -0.7736   60.7703 H       1  <0>         0.4000
     31 H31        -9.8577   -2.9242   61.6429 H       1  <0>         0.0700
     32 H32       -10.3896   -2.0163   60.2072 H       1  <0>         0.0700
     33 H33        -8.0761   -2.5073   59.2108 H       1  <0>         0.0800
     34 H34        -7.8499   -3.6580   60.5498 H       1  <0>         0.0800
     35 H35        -8.7402   -4.7534   58.4790 H       1  <0>         0.0700
     36 H36        -9.8496   -4.9034   59.8627 H       1  <0>         0.0700
     37 H37       -10.5682   -2.5825   58.4509 H       1  <0>         0.4000
     38 H38       -12.3407   -2.6939   56.9359 H       1  <0>         0.3900
     39 H39       -14.7346   -4.4502   57.3936 H       1  <0>         0.0600
     40 H40       -14.7881   -5.7602   56.1897 H       1  <0>         0.0700
     41 H41       -13.6327   -5.8402   57.5413 H       1  <0>         0.0700
     42 H42       -14.6503   -4.0287   54.5595 H       1  <0>         0.1000
     43 H43       -14.1650   -2.6252   55.5406 H       1  <0>         0.0800
     44 H44       -14.1946   -2.8186   52.3223 H       1  <0>         0.1400
     45 H45       -12.2458   -2.1557   50.8238 H       1  <0>         0.1400
     46 H46        -9.9859   -2.1826   51.9775 H       1  <0>         0.1600
     47 H47        -8.0559   -0.1316   65.5215 H       1  <0>         0.1500
@<TRIPOS>BOND
     1     1     2    1
     2     1    25    1
     3     1    26    1
     4     1    27    1
     5     2    24   ar
     6     2     3   ar
     7     3     4   ar
     8     3    28    1
     9     4     5   ar
    10     4    29    1
    11     5     6    1
    12     5    23   ar
    13     6     7    1
    14     6    30    1
    15     7     8    1
    16     7    31    1
    17     7    32    1
    18     8     9    1
    19     8    33    1
    20     8    34    1
    21     9    10    1
    22     9    35    1
    23     9    36    1
    24    10    11   am
    25    10    37    1
    26    11    12    2
    27    11    13   am
    28    13    14    1
    29    13    38    1
    30    14    15    1
    31    14    16    1
    32    14    17    1
    33    16    39    1
    34    16    40    1
    35    16    41    1
    36    17    18    1
    37    17    42    1
    38    17    43    1
    39    18    22    1
    40    18    19    2
    41    19    20    1
    42    19    44    1
    43    20    21    2
    44    20    45    1
    45    21    22    1
    46    21    46    1
    47    23    24   ar
    48    24    47    1
@<TRIPOS>SUBSTRUCTURE
     1 <0>         1 TEMP              0 ****  ****    0 ROOT


##########                                Name:    ZINC000460972051
##########                DOCK_Rotatable_Bonds:                  10
##########                         Heavy_Atoms:                  29
##########                    Molecular_Weight:             417.572
##########                DOCK_Rotatable_Bonds:                  10
##########                       Formal_Charge:         3.31551e-07
##########                     HBond_Acceptors:                   7
##########                        HBond_Donors:                   2
##########                         Heavy_Atoms:                  29
##########                          Grid_Score:          -37.944427
##########                     Grid_vdw_energy:          -38.355145
##########                      Grid_es_energy:            0.410715
##########           Internal_energy_repulsive:           33.960320

@<TRIPOS>MOLECULE
ZINC000460972051
 60 61 1 0 0
SMALL
USER_CHARGES


@<TRIPOS>ATOM
      1 C1        -11.2232    1.3242   64.9393 C.3     1  ZINC000460972051   -0.1800
      2 C2        -10.0243    1.9868   64.2577 C.3     1  ZINC000460972051    0.1000
      3 N3         -8.9076    1.0399   64.2052 N.am    1  ZINC000460972051   -0.6200
      4 C4         -8.7588    0.2321   63.1366 C.2     1  ZINC000460972051    0.7100
      5 O5         -7.8329   -0.5548   63.0938 O.2     1  ZINC000460972051   -0.5800
      6 N6         -9.6363    0.2965   62.1157 N.am    1  ZINC000460972051   -0.7400
      7 C7         -9.4755   -0.5827   60.9550 C.3     1  ZINC000460972051    0.2000
      8 H8         -8.6256   -1.2460   61.1166 H       1  ZINC000460972051    0.1100
      9 C9        -10.7445   -1.4164   60.7670 C.3     1  ZINC000460972051    0.1100
     10 N10       -11.8789   -0.5269   60.5058 N.am    1  ZINC000460972051   -1.1200
     11 S11       -13.4212   -1.1298   60.5069 S.o2    1  ZINC000460972051    2.7000
     12 O12       -13.5880   -1.8031   61.7470 O.2     1  ZINC000460972051   -0.9500
     13 O13       -14.2663   -0.0710   60.0776 O.2     1  ZINC000460972051   -0.9600
     14 C14       -13.4986   -2.3669   59.2546 C.ar    1  ZINC000460972051   -0.6900
     15 C15       -12.5472   -2.3964   58.2526 C.ar    1  ZINC000460972051   -0.0100
     16 C16       -12.6079   -3.3671   57.2700 C.ar    1  ZINC000460972051   -0.1500
     17 C17       -13.6199   -4.3083   57.2899 C.ar    1  ZINC000460972051   -0.0200
     18 C18       -13.6864   -5.3661   56.2186 C.3     1  ZINC000460972051   -0.1300
     19 C19       -14.5709   -4.2796   58.2931 C.ar    1  ZINC000460972051   -0.1500
     20 C20       -14.5080   -3.3115   59.2775 C.ar    1  ZINC000460972051    0.0300
     21 C21       -15.5445   -3.2802   60.3709 C.3     1  ZINC000460972051   -0.1700
     22 C22        -9.2349    0.2508   59.7228 C.ar    1  ZINC000460972051   -0.1000
     23 C23        -9.5851    1.5881   59.7138 C.ar    1  ZINC000460972051   -0.1000
     24 C24        -9.3644    2.3528   58.5835 C.ar    1  ZINC000460972051   -0.1200
     25 C25        -8.7931    1.7803   57.4624 C.ar    1  ZINC000460972051   -0.1200
     26 C26        -8.4422    0.4433   57.4717 C.ar    1  ZINC000460972051   -0.1200
     27 C27        -8.6589   -0.3203   58.6035 C.ar    1  ZINC000460972051   -0.1000
     28 C28        -7.9529    0.9711   65.3141 C.3     1  ZINC000460972051    0.1500
     29 C29        -8.0543    2.2457   66.1544 C.3     1  ZINC000460972051   -0.1600
     30 C30        -8.2732   -0.2429   66.1885 C.3     1  ZINC000460972051   -0.1600
     31 H31       -12.0540    2.0287   64.9783 H       1  ZINC000460972051    0.0700
     32 H32       -11.5212    0.4420   64.3728 H       1  ZINC000460972051    0.0600
     33 H33       -10.9484    1.0299   65.9521 H       1  ZINC000460972051    0.0700
     34 H34       -10.2991    2.2811   63.2447 H       1  ZINC000460972051    0.0700
     35 H35        -9.7262    2.8691   64.8242 H       1  ZINC000460972051    0.0900
     36 H36       -10.3742    0.9252   62.1494 H       1  ZINC000460972051    0.4000
     37 H37       -10.6124   -2.0940   59.9235 H       1  ZINC000460972051    0.0900
     38 H38       -10.9367   -1.9945   61.6709 H       1  ZINC000460972051    0.0900
     39 H39       -11.7266    0.4153   60.3324 H       1  ZINC000460972051    0.4200
     40 H40       -11.7564   -1.6609   58.2369 H       1  ZINC000460972051    0.1400
     41 H41       -11.8649   -3.3897   56.4866 H       1  ZINC000460972051    0.1300
     42 H42       -13.1159   -6.2395   56.5346 H       1  ZINC000460972051    0.0800
     43 H43       -14.7254   -5.6510   56.0534 H       1  ZINC000460972051    0.0700
     44 H44       -13.2660   -4.9728   55.2932 H       1  ZINC000460972051    0.0700
     45 H45       -15.3614   -5.0152   58.3089 H       1  ZINC000460972051    0.1300
     46 H46       -15.1631   -3.8027   61.2481 H       1  ZINC000460972051    0.0900
     47 H47       -15.7661   -2.2454   60.6321 H       1  ZINC000460972051    0.1000
     48 H48       -16.4542   -3.7700   60.0233 H       1  ZINC000460972051    0.0900
     49 H49       -10.0314    2.0353   60.5896 H       1  ZINC000460972051    0.1200
     50 H50        -9.6387    3.3973   58.5762 H       1  ZINC000460972051    0.1200
     51 H51        -8.6214    2.3775   56.5791 H       1  ZINC000460972051    0.1200
     52 H52        -7.9961   -0.0041   56.5958 H       1  ZINC000460972051    0.1200
     53 H53        -8.3847   -1.3649   58.6107 H       1  ZINC000460972051    0.1200
     54 H54        -6.9419    0.8767   64.9178 H       1  ZINC000460972051    0.1000
     55 H55        -7.8261    3.1107   65.5315 H       1  ZINC000460972051    0.0600
     56 H56        -9.0653    2.3402   66.5507 H       1  ZINC000460972051    0.0600
     57 H57        -7.3439    2.1945   66.9795 H       1  ZINC000460972051    0.0700
     58 H58        -8.2010   -1.1510   65.5900 H       1  ZINC000460972051    0.0600
     59 H59        -7.5629   -0.2941   67.0136 H       1  ZINC000460972051    0.0700
     60 H60        -9.2842   -0.1485   66.5848 H       1  ZINC000460972051    0.0600
@<TRIPOS>BOND
     1     1     2    1
     2     1    31    1
     3     1    32    1
     4     1    33    1
     5     2     3    1
     6     2    34    1
     7     2    35    1
     8     3     4   am
     9     3    28    1
    10     4     5    2
    11     4     6   am
    12     6     7    1
    13     6    36    1
    14     7     8    1
    15     7     9    1
    16     7    22    1
    17     9    10    1
    18     9    37    1
    19     9    38    1
    20    10    11   am
    21    10    39    1
    22    11    12    2
    23    11    13    2
    24    11    14    1
    25    14    20   ar
    26    14    15   ar
    27    15    16   ar
    28    15    40    1
    29    16    17   ar
    30    16    41    1
    31    17    18    1
    32    17    19   ar
    33    18    42    1
    34    18    43    1
    35    18    44    1
    36    19    20   ar
    37    19    45    1
    38    20    21    1
    39    21    46    1
    40    21    47    1
    41    21    48    1
    42    22    27   ar
    43    22    23   ar
    44    23    24   ar
    45    23    49    1
    46    24    25   ar
    47    24    50    1
    48    25    26   ar
    49    25    51    1
    50    26    27   ar
    51    26    52    1
    52    27    53    1
    53    28    29    1
    54    28    30    1
    55    28    54    1
    56    29    55    1
    57    29    56    1
    58    29    57    1
    59    30    58    1
    60    30    59    1
    61    30    60    1
@<TRIPOS>SUBSTRUCTURE
     1 ZINC000460972051        1 TEMP              0 ****  ****    0 ROOT


##########                                Name:    ZINC000981700465
##########                DOCK_Rotatable_Bonds:                   9
##########                         Heavy_Atoms:                  26
##########                    Molecular_Weight:             356.428
##########                DOCK_Rotatable_Bonds:                   9
##########                       Formal_Charge:               -0.01
##########                     HBond_Acceptors:                   8
##########                        HBond_Donors:                   3
##########                         Heavy_Atoms:                  26
##########                          Grid_Score:          -37.931850
##########                     Grid_vdw_energy:          -37.208549
##########                      Grid_es_energy:           -0.723300
##########           Internal_energy_repulsive:           16.045002

@<TRIPOS>MOLECULE
ZINC000981700465
 50 52 1 0 0
SMALL
USER_CHARGES


@<TRIPOS>ATOM
      1 C1        -16.2014   -1.1759   47.9198 C.3     1  ZINC000981700465   -0.1500
      2 C2        -15.3121   -1.7085   49.0452 C.3     1  ZINC000981700465   -0.1100
      3 C3        -13.8421   -1.5018   48.6748 C.3     1  ZINC000981700465   -0.0500
      4 C4        -13.5597   -0.0274   48.5436 C.2     1  ZINC000981700465    0.1400
      5 N5        -13.5649    0.6584   47.4339 N.2     1  ZINC000981700465   -0.2900
      6 N6        -13.2563    1.9921   47.7239 N.pl3   1  ZINC000981700465   -0.4600
      7 C7        -13.0610    2.1060   49.0473 C.2     1  ZINC000981700465    0.1000
      8 C8        -13.2491    0.8559   49.6018 C.2     1  ZINC000981700465   -0.2900
      9 C9        -13.1367    0.5057   51.0295 C.2     1  ZINC000981700465    0.5900
     10 O10       -12.7088    1.3210   51.8237 O.2     1  ZINC000981700465   -0.5300
     11 N11       -13.5085   -0.7181   51.4544 N.am    1  ZINC000981700465   -0.7300
     12 C12       -13.3952   -1.0667   52.8728 C.3     1  ZINC000981700465    0.1300
     13 C13       -13.2185   -2.5800   53.0135 C.3     1  ZINC000981700465   -0.1100
     14 H14       -13.9631   -3.1071   52.4171 H       1  ZINC000981700465    0.0900
     15 C15       -11.7888   -3.0004   52.5910 C.3     1  ZINC000981700465   -0.1200
     16 C16       -11.5920   -4.3421   53.3394 C.3     1  ZINC000981700465   -0.1300
     17 C17       -12.2797   -4.1196   54.7023 C.3     1  ZINC000981700465    0.1400
     18 H18       -12.7790   -5.0342   55.0223 H       1  ZINC000981700465    0.1000
     19 N19       -11.2904   -3.7119   55.7029 N.am    1  ZINC000981700465   -0.7100
     20 C20       -11.4995   -3.9827   57.0065 C.2     1  ZINC000981700465    0.5600
     21 O21       -12.5094   -4.5636   57.3521 O.2     1  ZINC000981700465   -0.5200
     22 C22       -10.4984   -3.5720   58.0182 C.ar    1  ZINC000981700465   -0.1400
     23 C23       -10.0778   -2.2399   58.1222 C.ar    1  ZINC000981700465   -0.0600
     24 C24        -9.1387   -1.9323   59.0932 C.ar    1  ZINC000981700465    0.0400
     25 N25        -8.6715   -2.8807   59.8817 N.ar    1  ZINC000981700465   -0.2200
     26 N26        -9.0524   -4.1023   59.7917 N.ar    1  ZINC000981700465   -0.2400
     27 C27        -9.9451   -4.4992   58.9057 C.ar    1  ZINC000981700465    0.0700
     28 C28       -13.3174   -2.9997   54.4948 C.3     1  ZINC000981700465   -0.1200
     29 H29       -15.9802   -1.7125   46.9971 H       1  ZINC000981700465    0.0600
     30 H30       -17.2486   -1.3232   48.1837 H       1  ZINC000981700465    0.0600
     31 H31       -16.0088   -0.1126   47.7769 H       1  ZINC000981700465    0.0500
     32 H32       -15.5332   -1.1719   49.9678 H       1  ZINC000981700465    0.0600
     33 H33       -15.5047   -2.7718   49.1882 H       1  ZINC000981700465    0.0600
     34 H34       -13.2081   -1.9253   49.4538 H       1  ZINC000981700465    0.1000
     35 H35       -13.6331   -1.9975   47.7268 H       1  ZINC000981700465    0.0800
     36 H36       -13.1940    2.7129   47.0778 H       1  ZINC000981700465    0.4500
     37 H37       -12.8077    3.0103   49.5806 H       1  ZINC000981700465    0.1800
     38 H38       -13.8510   -1.3681   50.8211 H       1  ZINC000981700465    0.4000
     39 H39       -12.5328   -0.5585   53.3041 H       1  ZINC000981700465    0.0700
     40 H40       -14.2993   -0.7563   53.3966 H       1  ZINC000981700465    0.0700
     41 H41       -11.7325   -3.1477   51.5125 H       1  ZINC000981700465    0.0700
     42 H42       -11.0564   -2.2634   52.9202 H       1  ZINC000981700465    0.0700
     43 H43       -12.0739   -5.1556   52.7972 H       1  ZINC000981700465    0.0800
     44 H44       -10.5309   -4.5500   53.4770 H       1  ZINC000981700465    0.0700
     45 H45       -10.4848   -3.2472   55.4273 H       1  ZINC000981700465    0.4000
     46 H46       -10.4723   -1.4778   57.4665 H       1  ZINC000981700465    0.1700
     47 H47        -8.7893   -0.9164   59.2044 H       1  ZINC000981700465    0.1800
     48 H48       -10.2410   -5.5369   58.8607 H       1  ZINC000981700465    0.1700
     49 H49       -13.0845   -2.1510   55.1379 H       1  ZINC000981700465    0.0800
     50 H50       -14.3178   -3.3721   54.7149 H       1  ZINC000981700465    0.0800
@<TRIPOS>BOND
     1     1     2    1
     2     1    29    1
     3     1    30    1
     4     1    31    1
     5     2     3    1
     6     2    32    1
     7     2    33    1
     8     3     4    1
     9     3    34    1
    10     3    35    1
    11     4     8    1
    12     4     5    2
    13     5     6    1
    14     6     7    1
    15     6    36    1
    16     7     8    2
    17     7    37    1
    18     8     9    1
    19     9    10    2
    20     9    11   am
    21    11    12    1
    22    11    38    1
    23    12    13    1
    24    12    39    1
    25    12    40    1
    26    13    14    1
    27    13    28    1
    28    13    15    1
    29    15    16    1
    30    15    41    1
    31    15    42    1
    32    16    17    1
    33    16    43    1
    34    16    44    1
    35    17    18    1
    36    17    19    1
    37    17    28    1
    38    19    20   am
    39    19    45    1
    40    20    21    2
    41    20    22    1
    42    22    27   ar
    43    22    23   ar
    44    23    24   ar
    45    23    46    1
    46    24    25   ar
    47    24    47    1
    48    25    26   ar
    49    26    27   ar
    50    27    48    1
    51    28    49    1
    52    28    50    1
@<TRIPOS>SUBSTRUCTURE
     1 ZINC000981700465        1 TEMP              0 ****  ****    0 ROOT


##########                                Name:    ZINC001124460178
##########                DOCK_Rotatable_Bonds:                  12
##########                         Heavy_Atoms:                  22
##########                    Molecular_Weight:             328.479
##########                DOCK_Rotatable_Bonds:                  12
##########                       Formal_Charge:          -0.0100003
##########                     HBond_Acceptors:                   7
##########                        HBond_Donors:                   2
##########                         Heavy_Atoms:                  22
##########                          Grid_Score:          -37.894051
##########                     Grid_vdw_energy:          -34.866318
##########                      Grid_es_energy:           -3.027733
##########           Internal_energy_repulsive:           24.629965

@<TRIPOS>MOLECULE
ZINC001124460178
 50 50 1 0 0
SMALL
USER_CHARGES


@<TRIPOS>ATOM
      1 C1        -15.0602   -3.0228   59.9526 C.3     1  ZINC001124460178   -0.0700
      2 C2        -14.4070   -1.8217   60.5865 C.2     1  ZINC001124460178    0.3100
      3 N3        -15.0424   -0.6914   60.6956 N.2     1  ZINC001124460178   -0.5000
      4 S4        -13.9592    0.3758   61.4547 S.3     1  ZINC001124460178    0.1800
      5 C5        -12.6912   -0.7839   61.5830 C.2     1  ZINC001124460178    0.3400
      6 N6        -11.4346   -0.6002   62.1309 N.pl3   1  ZINC001124460178   -0.6600
      7 C7        -10.2618   -1.2026   61.4922 C.3     1  ZINC001124460178    0.0900
      8 C8        -10.0405   -0.5591   60.1219 C.3     1  ZINC001124460178    0.0800
      9 H9        -10.9347   -0.6868   59.5118 H       1  ZINC001124460178    0.1200
     10 O10        -9.7721    0.8346   60.2879 O.3     1  ZINC001124460178   -0.5500
     11 C11        -8.8514   -1.2286   59.4301 C.3     1  ZINC001124460178    0.0900
     12 N12        -9.2579   -2.5410   58.9215 N.am    1  ZINC001124460178   -0.6100
     13 C13        -8.7008   -3.7604   59.5124 C.3     1  ZINC001124460178    0.0800
     14 C14       -10.1442   -2.6266   57.9098 C.2     1  ZINC001124460178    0.5100
     15 O15       -10.6042   -1.6171   57.4196 O.2     1  ZINC001124460178   -0.5400
     16 C16       -10.5637   -3.9766   57.3877 C.3     1  ZINC001124460178   -0.1400
     17 C17       -11.8695   -3.8365   56.6026 C.3     1  ZINC001124460178   -0.1100
     18 C18       -11.5552   -3.4599   55.1533 C.3     1  ZINC001124460178   -0.1200
     19 C19       -12.8561   -3.3907   54.3509 C.3     1  ZINC001124460178   -0.1200
     20 C20       -12.5926   -2.7010   53.0108 C.3     1  ZINC001124460178   -0.1000
     21 C21       -12.4283   -1.1965   53.2351 C.3     1  ZINC001124460178   -0.1500
     22 C22       -11.3142   -3.2665   52.3889 C.3     1  ZINC001124460178   -0.1500
     23 N23       -13.1808   -1.8839   61.0511 N.2     1  ZINC001124460178   -0.5800
     24 H24       -15.5800   -3.5998   60.7175 H       1  ZINC001124460178    0.0900
     25 H25       -15.7748   -2.6923   59.1987 H       1  ZINC001124460178    0.0900
     26 H26       -14.2984   -3.6452   59.4831 H       1  ZINC001124460178    0.0900
     27 H27       -11.3299   -0.0727   62.9382 H       1  ZINC001124460178    0.4200
     28 H28        -9.3835   -1.0387   62.1167 H       1  ZINC001124460178    0.0800
     29 H29       -10.4251   -2.2733   61.3688 H       1  ZINC001124460178    0.0900
     30 H30        -9.2326    1.0416   61.0632 H       1  ZINC001124460178    0.3800
     31 H31        -8.5155   -0.6058   58.6010 H       1  ZINC001124460178    0.0900
     32 H32        -8.0377   -1.3521   60.1447 H       1  ZINC001124460178    0.1000
     33 H33        -9.3345   -4.0866   60.3371 H       1  ZINC001124460178    0.0600
     34 H34        -8.6573   -4.5437   58.7556 H       1  ZINC001124460178    0.0800
     35 H35        -7.6963   -3.5579   59.8839 H       1  ZINC001124460178    0.0800
     36 H36        -9.7865   -4.3705   56.7328 H       1  ZINC001124460178    0.0900
     37 H37       -10.7142   -4.6590   58.2242 H       1  ZINC001124460178    0.0900
     38 H38       -12.4091   -4.7835   56.6230 H       1  ZINC001124460178    0.0700
     39 H39       -12.4840   -3.0584   57.0552 H       1  ZINC001124460178    0.0700
     40 H40       -11.0614   -2.4885   55.1293 H       1  ZINC001124460178    0.0600
     41 H41       -10.8985   -4.2122   54.7166 H       1  ZINC001124460178    0.0600
     42 H42       -13.2275   -4.3999   54.1733 H       1  ZINC001124460178    0.0600
     43 H43       -13.5991   -2.8234   54.9115 H       1  ZINC001124460178    0.0600
     44 H44       -13.4327   -2.8787   52.3394 H       1  ZINC001124460178    0.0700
     45 H45       -11.5882   -1.0189   53.9065 H       1  ZINC001124460178    0.0500
     46 H46       -12.2406   -0.7052   52.2803 H       1  ZINC001124460178    0.0500
     47 H47       -13.3390   -0.7936   53.6781 H       1  ZINC001124460178    0.0500
     48 H48       -11.4313   -4.3384   52.2291 H       1  ZINC001124460178    0.0600
     49 H49       -11.1265   -2.7753   51.4341 H       1  ZINC001124460178    0.0500
     50 H50       -10.4741   -3.0889   53.0602 H       1  ZINC001124460178    0.0500
@<TRIPOS>BOND
     1     1     2    1
     2     1    24    1
     3     1    25    1
     4     1    26    1
     5     2    23    1
     6     2     3    2
     7     3     4    1
     8     4     5    1
     9     5     6    1
    10     5    23    2
    11     6     7    1
    12     6    27    1
    13     7     8    1
    14     7    28    1
    15     7    29    1
    16     8     9    1
    17     8    10    1
    18     8    11    1
    19    10    30    1
    20    11    12    1
    21    11    31    1
    22    11    32    1
    23    12    13    1
    24    12    14   am
    25    13    33    1
    26    13    34    1
    27    13    35    1
    28    14    15    2
    29    14    16    1
    30    16    17    1
    31    16    36    1
    32    16    37    1
    33    17    18    1
    34    17    38    1
    35    17    39    1
    36    18    19    1
    37    18    40    1
    38    18    41    1
    39    19    20    1
    40    19    42    1
    41    19    43    1
    42    20    21    1
    43    20    22    1
    44    20    44    1
    45    21    45    1
    46    21    46    1
    47    21    47    1
    48    22    48    1
    49    22    49    1
    50    22    50    1
@<TRIPOS>SUBSTRUCTURE
     1 ZINC001124460178        1 TEMP              0 ****  ****    0 ROOT


##########                                Name:    ZINC000467185792
##########                DOCK_Rotatable_Bonds:                   9
##########                         Heavy_Atoms:                  29
##########                    Molecular_Weight:             412.513
##########                DOCK_Rotatable_Bonds:                   9
##########                       Formal_Charge:                0.04
##########                     HBond_Acceptors:                   8
##########                        HBond_Donors:                   2
##########                         Heavy_Atoms:                  29
##########                          Grid_Score:          -37.869831
##########                     Grid_vdw_energy:          -37.428062
##########                      Grid_es_energy:           -0.441769
##########           Internal_energy_repulsive:           19.676798

@<TRIPOS>MOLECULE
ZINC000467185792
 53 55 1 0 0
SMALL
USER_CHARGES


@<TRIPOS>ATOM
      1 C1         -3.3566    2.2001   49.6953 C.3     1  ZINC000467185792   -0.1500
      2 C2         -4.3421    2.6159   50.7893 C.3     1  ZINC000467185792   -0.1200
      3 C3         -5.4001    1.5245   50.9641 C.3     1  ZINC000467185792    0.0600
      4 O4         -6.3213    1.9133   51.9850 O.3     1  ZINC000467185792   -0.3100
      5 C5         -7.2932    1.0211   52.3116 C.ar    1  ZINC000467185792    0.1400
      6 C6         -7.3057   -0.2358   51.7226 C.ar    1  ZINC000467185792   -0.2100
      7 C7         -8.2903   -1.1437   52.0523 C.ar    1  ZINC000467185792   -0.0400
      8 C8         -9.2736   -0.7979   52.9779 C.ar    1  ZINC000467185792   -0.0600
      9 C9        -10.3337   -1.7721   53.3350 C.2     1  ZINC000467185792    0.1400
     10 C10       -10.9081   -2.5760   52.4225 C.2     1  ZINC000467185792   -0.3000
     11 S11       -12.1062   -3.5738   53.2437 S.3     1  ZINC000467185792    0.2000
     12 C12       -11.7088   -2.7941   54.7720 C.2     1  ZINC000467185792    0.2800
     13 N13       -12.2980   -3.0803   55.9959 N.am    1  ZINC000467185792   -0.6100
     14 C14       -13.1883   -2.2222   56.5324 C.2     1  ZINC000467185792    0.5900
     15 O15       -13.4753   -1.1972   55.9441 O.2     1  ZINC000467185792   -0.4900
     16 C16       -13.8137   -2.5261   57.8315 C.2     1  ZINC000467185792   -0.2400
     17 C17       -13.2909   -2.0243   59.0217 C.2     1  ZINC000467185792    0.0800
     18 C18       -12.0636   -1.1497   59.0223 C.3     1  ZINC000467185792   -0.1200
     19 C19       -10.8131   -2.0258   59.1209 C.3     1  ZINC000467185792   -0.1400
     20 C20       -13.9400   -2.3565   60.2170 C.2     1  ZINC000467185792    0.0600
     21 C21       -13.4072   -1.8339   61.5263 C.3     1  ZINC000467185792   -0.0600
     22 C22       -14.0435   -0.4761   61.8303 C.3     1  ZINC000467185792   -0.1500
     23 N23       -15.0028   -3.1142   60.2075 N.2     1  ZINC000467185792   -0.1800
     24 N24       -15.5099   -3.5925   59.1309 N.am    1  ZINC000467185792   -0.4300
     25 C25       -14.9790   -3.3389   57.9193 C.2     1  ZINC000467185792    0.5000
     26 O26       -15.4829   -3.8076   56.9132 O.2     1  ZINC000467185792   -0.5300
     27 N27       -10.7761   -1.9142   54.5765 N.2     1  ZINC000467185792   -0.5000
     28 C28        -9.2583    0.4651   53.5675 C.ar    1  ZINC000467185792   -0.0600
     29 C29        -8.2679    1.3666   53.2376 C.ar    1  ZINC000467185792   -0.1500
     30 H30        -3.8932    2.0606   48.7569 H       1  ZINC000467185792    0.0600
     31 H31        -2.6030    2.9776   49.5707 H       1  ZINC000467185792    0.0700
     32 H32        -2.8717    1.2661   49.9788 H       1  ZINC000467185792    0.0600
     33 H33        -3.8056    2.7553   51.7278 H       1  ZINC000467185792    0.0700
     34 H34        -4.8270    3.5499   50.5056 H       1  ZINC000467185792    0.0700
     35 H35        -5.9360    1.3842   50.0253 H       1  ZINC000467185792    0.0600
     36 H36        -4.9153    0.5907   51.2488 H       1  ZINC000467185792    0.0600
     37 H37        -6.5438   -0.5030   51.0053 H       1  ZINC000467185792    0.1300
     38 H38        -8.2997   -2.1215   51.5935 H       1  ZINC000467185792    0.1300
     39 H39       -10.6755   -2.6049   51.3683 H       1  ZINC000467185792    0.1800
     40 H40       -12.0691   -3.8979   56.4651 H       1  ZINC000467185792    0.4400
     41 H41       -12.0297   -0.5707   58.0994 H       1  ZINC000467185792    0.0900
     42 H42       -12.1007   -0.4721   59.8753 H       1  ZINC000467185792    0.1300
     43 H43       -10.8470   -2.6048   60.0438 H       1  ZINC000467185792    0.0600
     44 H44       -10.7760   -2.7034   58.2679 H       1  ZINC000467185792    0.0600
     45 H45        -9.9254   -1.3931   59.1213 H       1  ZINC000467185792    0.0700
     46 H46       -13.6506   -2.5360   62.3238 H       1  ZINC000467185792    0.1000
     47 H47       -12.3252   -1.7211   61.4591 H       1  ZINC000467185792    0.1000
     48 H48       -13.6582   -0.0982   62.7773 H       1  ZINC000467185792    0.0600
     49 H49       -13.8002    0.2259   61.0328 H       1  ZINC000467185792    0.0600
     50 H50       -15.1256   -0.5888   61.8975 H       1  ZINC000467185792    0.0600
     51 H51       -16.3016   -4.1498   59.1906 H       1  ZINC000467185792    0.4500
     52 H52       -10.0189    0.7361   54.2847 H       1  ZINC000467185792    0.1300
     53 H53        -8.2552    2.3451   53.6943 H       1  ZINC000467185792    0.1400
@<TRIPOS>BOND
     1     1     2    1
     2     1    30    1
     3     1    31    1
     4     1    32    1
     5     2     3    1
     6     2    33    1
     7     2    34    1
     8     3     4    1
     9     3    35    1
    10     3    36    1
    11     4     5    1
    12     5    29   ar
    13     5     6   ar
    14     6     7   ar
    15     6    37    1
    16     7     8   ar
    17     7    38    1
    18     8     9    1
    19     8    28   ar
    20     9    27    1
    21     9    10    2
    22    10    11    1
    23    10    39    1
    24    11    12    1
    25    12    13    1
    26    12    27    2
    27    13    14   am
    28    13    40    1
    29    14    15    2
    30    14    16    1
    31    16    25    1
    32    16    17    2
    33    17    18    1
    34    17    20    1
    35    18    19    1
    36    18    41    1
    37    18    42    1
    38    19    43    1
    39    19    44    1
    40    19    45    1
    41    20    21    1
    42    20    23    2
    43    21    22    1
    44    21    46    1
    45    21    47    1
    46    22    48    1
    47    22    49    1
    48    22    50    1
    49    23    24    1
    50    24    25   am
    51    24    51    1
    52    25    26    2
    53    28    29   ar
    54    28    52    1
    55    29    53    1
@<TRIPOS>SUBSTRUCTURE
     1 ZINC000467185792        1 TEMP              0 ****  ****    0 ROOT


##########                                Name:    ZINC000995593866
##########                DOCK_Rotatable_Bonds:                   7
##########                         Heavy_Atoms:                  24
##########                    Molecular_Weight:             342.389
##########                DOCK_Rotatable_Bonds:                   7
##########                       Formal_Charge:                0.03
##########                     HBond_Acceptors:                   8
##########                        HBond_Donors:                   1
##########                         Heavy_Atoms:                  24
##########                          Grid_Score:          -37.866634
##########                     Grid_vdw_energy:          -35.291634
##########                      Grid_es_energy:           -2.575000
##########           Internal_energy_repulsive:           11.367290

@<TRIPOS>MOLECULE
ZINC000995593866
 48 50 1 0 0
SMALL
USER_CHARGES


@<TRIPOS>ATOM
      1 C1         -9.2639    0.2082   58.5061 C.3     1  ZINC000995593866   -0.1400
      2 C2        -10.1061   -0.4625   59.5934 C.3     1  ZINC000995593866   -0.0800
      3 C3        -10.9851    0.5727   60.2981 C.3     1  ZINC000995593866   -0.1400
      4 C4        -10.9761   -1.5828   58.9838 C.3     1  ZINC000995593866    0.1200
      5 N5        -10.1850   -2.8196   59.1814 N.am    1  ZINC000995593866   -0.6300
      6 C6        -10.0366   -3.8515   58.3270 C.2     1  ZINC000995593866    0.5400
      7 O7         -9.3484   -4.8009   58.6366 O.2     1  ZINC000995593866   -0.5300
      8 C8        -10.7257   -3.8253   56.9871 C.3     1  ZINC000995593866   -0.1300
      9 C9        -12.1606   -4.3336   57.1416 C.3     1  ZINC000995593866   -0.1000
     10 C10       -13.1959   -3.2108   57.3212 C.3     1  ZINC000995593866   -0.1300
     11 C11       -14.1221   -4.0250   56.4026 C.3     1  ZINC000995593866   -0.1400
     12 C12       -12.8501   -4.6480   55.8035 C.3     1  ZINC000995593866   -0.1400
     13 C13        -9.5943   -2.6652   60.5311 C.3     1  ZINC000995593866    0.1100
     14 C14        -9.1949   -1.1761   60.6136 C.3     1  ZINC000995593866    0.0800
     15 H15        -8.1475   -1.0490   60.3403 H       1  ZINC000995593866    0.0700
     16 N16        -9.4352   -0.6572   61.9667 N.3     1  ZINC000995593866   -0.6800
     17 C17        -8.3593   -1.0580   62.8831 C.3     1  ZINC000995593866    0.1500
     18 C18        -8.5953   -0.4386   64.2364 C.2     1  ZINC000995593866    0.1900
     19 N19        -9.2016    0.6984   64.4799 N.2     1  ZINC000995593866   -0.4300
     20 C20        -9.1774    0.8426   65.8168 C.2     1  ZINC000995593866    0.0900
     21 C21        -9.7511    1.9952   66.6001 C.3     1  ZINC000995593866    0.3800
     22 F22        -8.7864    3.0008   66.7240 F       1  ZINC000995593866   -0.1800
     23 F23       -10.8703    2.5024   65.9312 F       1  ZINC000995593866   -0.1700
     24 N24        -8.5689   -0.1947   66.3091 N.2     1  ZINC000995593866   -0.3400
     25 O25        -8.2317   -0.9457   65.4182 O.3     1  ZINC000995593866    0.1000
     26 H26        -8.6724   -0.5463   57.9876 H       1  ZINC000995593866    0.0600
     27 H27        -9.9209    0.7075   57.7940 H       1  ZINC000995593866    0.0600
     28 H28        -8.5986    0.9412   58.9623 H       1  ZINC000995593866    0.0600
     29 H29       -11.6406    1.0494   59.5693 H       1  ZINC000995593866    0.0700
     30 H30       -11.5876    0.0790   61.0606 H       1  ZINC000995593866    0.0700
     31 H31       -10.3532    1.3273   60.7667 H       1  ZINC000995593866    0.0600
     32 H32       -11.9285   -1.6527   59.5091 H       1  ZINC000995593866    0.0800
     33 H33       -11.1393   -1.4016   57.9214 H       1  ZINC000995593866    0.0900
     34 H34       -10.7411   -2.8041   56.6064 H       1  ZINC000995593866    0.0900
     35 H35       -10.1867   -4.4654   56.2887 H       1  ZINC000995593866    0.0900
     36 H36       -12.2495   -5.1331   57.8771 H       1  ZINC000995593866    0.1000
     37 H37       -13.5659   -3.1173   58.3423 H       1  ZINC000995593866    0.0700
     38 H38       -12.8849   -2.2576   56.8937 H       1  ZINC000995593866    0.0800
     39 H39       -14.7485   -4.7396   56.9365 H       1  ZINC000995593866    0.0800
     40 H40       -14.6834   -3.4138   55.6958 H       1  ZINC000995593866    0.0700
     41 H41       -12.4446   -4.0877   54.9610 H       1  ZINC000995593866    0.0800
     42 H42       -12.9410   -5.7148   55.5992 H       1  ZINC000995593866    0.0700
     43 H43       -10.3310   -2.9043   61.2981 H       1  ZINC000995593866    0.0900
     44 H44        -8.7150   -3.3009   60.6362 H       1  ZINC000995593866    0.0800
     45 H45        -9.5455    0.3456   61.9551 H       1  ZINC000995593866    0.3600
     46 H46        -8.3482   -2.1438   62.9775 H       1  ZINC000995593866    0.1200
     47 H47        -7.4015   -0.7177   62.4897 H       1  ZINC000995593866    0.0800
     48 H48       -10.0456    1.6502   67.5912 H       1  ZINC000995593866    0.1500
@<TRIPOS>BOND
     1     1     2    1
     2     1    26    1
     3     1    27    1
     4     1    28    1
     5     2    14    1
     6     2     3    1
     7     2     4    1
     8     3    29    1
     9     3    30    1
    10     3    31    1
    11     4     5    1
    12     4    32    1
    13     4    33    1
    14     5     6   am
    15     5    13    1
    16     6     7    2
    17     6     8    1
    18     8     9    1
    19     8    34    1
    20     8    35    1
    21     9    12    1
    22     9    10    1
    23     9    36    1
    24    10    11    1
    25    10    37    1
    26    10    38    1
    27    11    12    1
    28    11    39    1
    29    11    40    1
    30    12    41    1
    31    12    42    1
    32    13    14    1
    33    13    43    1
    34    13    44    1
    35    14    15    1
    36    14    16    1
    37    16    17    1
    38    16    45    1
    39    17    18    1
    40    17    46    1
    41    17    47    1
    42    18    25    1
    43    18    19    2
    44    19    20    1
    45    20    21    1
    46    20    24    2
    47    21    22    1
    48    21    23    1
    49    21    48    1
    50    24    25    1
@<TRIPOS>SUBSTRUCTURE
     1 ZINC000995593866        1 TEMP              0 ****  ****    0 ROOT


##########                                Name:    ZINC000058174787
##########                DOCK_Rotatable_Bonds:                   9
##########                         Heavy_Atoms:                  27
##########                    Molecular_Weight:             413.882
##########                DOCK_Rotatable_Bonds:                   9
##########                       Formal_Charge:           0.0200002
##########                     HBond_Acceptors:                  10
##########                        HBond_Donors:                   1
##########                         Heavy_Atoms:                  27
##########                          Grid_Score:          -37.863056
##########                     Grid_vdw_energy:          -36.525505
##########                      Grid_es_energy:           -1.337551
##########           Internal_energy_repulsive:           10.333926

@<TRIPOS>MOLECULE
ZINC000058174787
 47 48 1 0 0
SMALL
USER_CHARGES


@<TRIPOS>ATOM
      1 C1        -11.1552    3.6289   50.9518 C.3     1  ZINC000058174787   -0.0700
      2 C2        -12.0281    2.5369   50.3890 C.2     1  ZINC000058174787    0.2100
      3 N3        -12.3030    1.4044   50.9763 N.2     1  ZINC000058174787   -0.4200
      4 C4        -13.1077    0.6797   50.1848 C.2     1  ZINC000058174787   -0.5600
      5 S5        -13.7483   -0.9213   50.5473 S.o2    1  ZINC000058174787    2.7400
      6 O6        -14.8435   -0.7246   51.4311 O.2     1  ZINC000058174787   -0.9500
      7 O7        -13.8653   -1.5977   49.3032 O.2     1  ZINC000058174787   -0.9600
      8 N8        -12.5892   -1.7289   51.4115 N.am    1  ZINC000058174787   -1.1100
      9 C9        -12.1276   -1.1947   52.6952 C.3     1  ZINC000058174787    0.1300
     10 C10       -10.8857   -1.9636   53.1506 C.3     1  ZINC000058174787   -0.1200
     11 C11       -11.2716   -3.3765   53.5051 C.2     1  ZINC000058174787    0.4700
     12 O12       -11.3064   -4.2267   52.6473 O.2     1  ZINC000058174787   -0.5000
     13 O13       -11.5766   -3.6906   54.7741 O.3     1  ZINC000058174787   -0.3300
     14 C14       -12.7428   -4.5300   54.9833 C.3     1  ZINC000058174787    0.0400
     15 H15       -12.7304   -5.3536   54.2694 H       1  ZINC000058174787    0.1200
     16 C16       -14.0118   -3.6995   54.7820 C.3     1  ZINC000058174787   -0.1700
     17 C17       -12.7200   -5.0808   56.3859 C.2     1  ZINC000058174787    0.4000
     18 O18       -13.3761   -6.0624   56.6625 O.2     1  ZINC000058174787   -0.4200
     19 C19       -11.9020   -4.4278   57.4193 C.ar    1  ZINC000058174787   -0.1600
     20 C20       -12.2960   -3.1962   57.9532 C.ar    1  ZINC000058174787   -0.0600
     21 C21       -11.5247   -2.5904   58.9215 C.ar    1  ZINC000058174787   -0.1200
     22 C22       -10.3617   -3.1983   59.3664 C.ar    1  ZINC000058174787    0.0000
     23 Cl23       -9.3969   -2.4282   60.5868 Cl      1  ZINC000058174787   -0.0500
     24 C24        -9.9654   -4.4182   58.8420 C.ar    1  ZINC000058174787   -0.1200
     25 C25       -10.7293   -5.0382   57.8770 C.ar    1  ZINC000058174787   -0.0400
     26 C26       -13.3403    1.3901   49.0647 C.2     1  ZINC000058174787    0.0700
     27 N27       -12.6600    2.5706   49.1960 N.pl3   1  ZINC000058174787   -0.4500
     28 C28       -12.6182    3.6630   48.2207 C.3     1  ZINC000058174787    0.0600
     29 H29       -11.7661    4.3183   51.5346 H       1  ZINC000058174787    0.0900
     30 H30       -10.3913    3.1893   51.5931 H       1  ZINC000058174787    0.1000
     31 H31       -10.6769    4.1691   50.1348 H       1  ZINC000058174787    0.0800
     32 H32       -12.2160   -2.5555   51.0678 H       1  ZINC000058174787    0.4200
     33 H33       -11.8800   -0.1392   52.5816 H       1  ZINC000058174787    0.0900
     34 H34       -12.9163   -1.3050   53.4394 H       1  ZINC000058174787    0.0900
     35 H35       -10.1518   -1.9787   52.3447 H       1  ZINC000058174787    0.1200
     36 H36       -10.4555   -1.4743   54.0245 H       1  ZINC000058174787    0.1200
     37 H37       -14.0241   -2.8760   55.4959 H       1  ZINC000058174787    0.0800
     38 H38       -14.0282   -3.3012   53.7675 H       1  ZINC000058174787    0.0800
     39 H39       -14.8872   -4.3297   54.9390 H       1  ZINC000058174787    0.0800
     40 H40       -13.2019   -2.7210   57.6071 H       1  ZINC000058174787    0.1400
     41 H41       -11.8274   -1.6394   59.3343 H       1  ZINC000058174787    0.1400
     42 H42        -9.0577   -4.8862   59.1935 H       1  ZINC000058174787    0.1400
     43 H43       -10.4195   -5.9890   57.4695 H       1  ZINC000058174787    0.1500
     44 H44       -13.9499    1.0882   48.2258 H       1  ZINC000058174787    0.1900
     45 H45       -13.4324    4.3596   48.4204 H       1  ZINC000058174787    0.0900
     46 H46       -11.6650    4.1855   48.3012 H       1  ZINC000058174787    0.1000
     47 H47       -12.7261    3.2566   47.2151 H       1  ZINC000058174787    0.0900
@<TRIPOS>BOND
     1     1     2    1
     2     1    29    1
     3     1    30    1
     4     1    31    1
     5     2    27    1
     6     2     3    2
     7     3     4    1
     8     4     5    1
     9     4    26    2
    10     5     6    2
    11     5     7    2
    12     5     8   am
    13     8     9    1
    14     8    32    1
    15     9    10    1
    16     9    33    1
    17     9    34    1
    18    10    11    1
    19    10    35    1
    20    10    36    1
    21    11    12    2
    22    11    13    1
    23    13    14    1
    24    14    15    1
    25    14    16    1
    26    14    17    1
    27    16    37    1
    28    16    38    1
    29    16    39    1
    30    17    18    2
    31    17    19    1
    32    19    25   ar
    33    19    20   ar
    34    20    21   ar
    35    20    40    1
    36    21    22   ar
    37    21    41    1
    38    22    23    1
    39    22    24   ar
    40    24    25   ar
    41    24    42    1
    42    25    43    1
    43    26    27    1
    44    26    44    1
    45    27    28    1
    46    28    45    1
    47    28    46    1
    48    28    47    1
@<TRIPOS>SUBSTRUCTURE
     1 ZINC000058174787        1 TEMP              0 ****  ****    0 ROOT


##########                                Name:    ZINC000150894060
##########                DOCK_Rotatable_Bonds:                  10
##########                         Heavy_Atoms:                  27
##########                    Molecular_Weight:              366.42
##########                DOCK_Rotatable_Bonds:                  10
##########                       Formal_Charge:        -6.70552e-07
##########                     HBond_Acceptors:                   7
##########                        HBond_Donors:                   2
##########                         Heavy_Atoms:                  27
##########                          Grid_Score:          -37.858841
##########                     Grid_vdw_energy:          -36.234344
##########                      Grid_es_energy:           -1.624496
##########           Internal_energy_repulsive:           12.516462

@<TRIPOS>MOLECULE
ZINC000150894060
 49 51 1 0 0
SMALL
USER_CHARGES


@<TRIPOS>ATOM
      1 C1         -7.1628    0.2380   51.9644 C.3     1  ZINC000150894060   -0.1000
      2 C2         -8.2210    0.7707   52.8958 C.2     1  ZINC000150894060   -0.0800
      3 C3         -9.4367    0.2061   53.1561 C.2     1  ZINC000150894060   -0.1000
      4 C4         -9.9517   -1.0377   52.5740 C.2     1  ZINC000150894060    0.6100
      5 O5         -9.2161   -1.7540   51.9207 O.2     1  ZINC000150894060   -0.5100
      6 N6        -11.2395   -1.3873   52.7625 N.am    1  ZINC000150894060   -0.7200
      7 C7        -11.7534   -2.6306   52.1826 C.3     1  ZINC000150894060    0.1200
      8 C8        -12.9376   -3.1294   53.0131 C.3     1  ZINC000150894060   -0.1500
      9 C9        -12.5205   -4.3734   53.8002 C.3     1  ZINC000150894060    0.1200
     10 N10       -11.6339   -3.9816   54.8988 N.am    1  ZINC000150894060   -0.7300
     11 C11       -12.1500   -3.4477   56.0234 C.2     1  ZINC000150894060    0.5600
     12 O12       -13.3512   -3.2926   56.1270 O.2     1  ZINC000150894060   -0.5300
     13 C13       -11.2552   -3.0507   57.1314 C.ar    1  ZINC000150894060   -0.1300
     14 C14       -10.9213   -1.7081   57.3160 C.ar    1  ZINC000150894060   -0.0900
     15 C15       -10.0863   -1.3443   58.3522 C.ar    1  ZINC000150894060   -0.0900
     16 C16        -9.5798   -2.3071   59.2072 C.ar    1  ZINC000150894060   -0.0800
     17 C17        -8.6677   -1.9024   60.3365 C.3     1  ZINC000150894060    0.1700
     18 N18        -9.4377   -1.1765   61.3497 N.pl3   1  ZINC000150894060   -0.3700
     19 C19        -8.9560   -0.6813   62.5089 C.2     1  ZINC000150894060    0.0500
     20 C20        -9.9810   -0.0843   63.1600 C.2     1  ZINC000150894060   -0.2700
     21 C21       -11.1284   -0.2191   62.3715 C.2     1  ZINC000150894060    0.0400
     22 N22       -10.8026   -0.8683   61.2833 N.2     1  ZINC000150894060   -0.2900
     23 C23        -9.9072   -3.6396   59.0300 C.ar    1  ZINC000150894060   -0.1100
     24 C24       -10.7454   -4.0163   58.0010 C.ar    1  ZINC000150894060   -0.0600
     25 O25       -10.0811    0.9928   54.0426 O.3     1  ZINC000150894060   -0.1700
     26 C26        -9.3070    2.0411   54.3515 C.2     1  ZINC000150894060    0.0000
     27 C27        -8.1455    1.9400   53.6684 C.2     1  ZINC000150894060   -0.2300
     28 H28        -6.4970   -0.4277   52.5136 H       1  ZINC000150894060    0.0800
     29 H29        -7.6374   -0.3121   51.1518 H       1  ZINC000150894060    0.0900
     30 H30        -6.5885    1.0686   51.5540 H       1  ZINC000150894060    0.0700
     31 H31       -11.8261   -0.8158   53.2823 H       1  ZINC000150894060    0.4100
     32 H32       -12.0794   -2.4464   51.1589 H       1  ZINC000150894060    0.0800
     33 H33       -10.9662   -3.3844   52.1831 H       1  ZINC000150894060    0.0800
     34 H34       -13.2498   -2.3485   53.7064 H       1  ZINC000150894060    0.0800
     35 H35       -13.7663   -3.3796   52.3506 H       1  ZINC000150894060    0.0800
     36 H36       -13.4070   -4.8614   54.2051 H       1  ZINC000150894060    0.0800
     37 H37       -11.9962   -5.0630   53.1386 H       1  ZINC000150894060    0.0800
     38 H38       -10.6755   -4.1064   54.8167 H       1  ZINC000150894060    0.4000
     39 H39       -11.3154   -0.9557   56.6490 H       1  ZINC000150894060    0.1300
     40 H40        -9.8271   -0.3058   58.4960 H       1  ZINC000150894060    0.1300
     41 H41        -8.2268   -2.7930   60.7844 H       1  ZINC000150894060    0.1100
     42 H42        -7.8763   -1.2593   59.9518 H       1  ZINC000150894060    0.1000
     43 H43        -7.9353   -0.7498   62.8552 H       1  ZINC000150894060    0.1700
     44 H44        -9.9234    0.4087   64.1192 H       1  ZINC000150894060    0.1500
     45 H45       -12.1123    0.1530   62.6164 H       1  ZINC000150894060    0.1800
     46 H46        -9.5088   -4.3862   59.7010 H       1  ZINC000150894060    0.1300
     47 H47       -11.0005   -5.0567   57.8640 H       1  ZINC000150894060    0.1400
     48 H48        -9.5666    2.8344   55.0370 H       1  ZINC000150894060    0.2100
     49 H49        -7.3174    2.6324   53.7051 H       1  ZINC000150894060    0.1600
@<TRIPOS>BOND
     1     1     2    1
     2     1    28    1
     3     1    29    1
     4     1    30    1
     5     2    27    1
     6     2     3    2
     7     3     4    1
     8     3    25    1
     9     4     5    2
    10     4     6   am
    11     6     7    1
    12     6    31    1
    13     7     8    1
    14     7    32    1
    15     7    33    1
    16     8     9    1
    17     8    34    1
    18     8    35    1
    19     9    10    1
    20     9    36    1
    21     9    37    1
    22    10    11   am
    23    10    38    1
    24    11    12    2
    25    11    13    1
    26    13    24   ar
    27    13    14   ar
    28    14    15   ar
    29    14    39    1
    30    15    16   ar
    31    15    40    1
    32    16    17    1
    33    16    23   ar
    34    17    18    1
    35    17    41    1
    36    17    42    1
    37    18    22    1
    38    18    19    1
    39    19    20    2
    40    19    43    1
    41    20    21    1
    42    20    44    1
    43    21    22    2
    44    21    45    1
    45    23    24   ar
    46    23    46    1
    47    24    47    1
    48    25    26    1
    49    26    27    2
    50    26    48    1
    51    27    49    1
@<TRIPOS>SUBSTRUCTURE
     1 ZINC000150894060        1 TEMP              0 ****  ****    0 ROOT


##########                                Name:    ZINC000744839011
##########                DOCK_Rotatable_Bonds:                  10
##########                         Heavy_Atoms:                  24
##########                    Molecular_Weight:              378.83
##########                DOCK_Rotatable_Bonds:                  10
##########                       Formal_Charge:           0.0300002
##########                     HBond_Acceptors:                   9
##########                        HBond_Donors:                   0
##########                         Heavy_Atoms:                  24
##########                          Grid_Score:          -37.799179
##########                     Grid_vdw_energy:          -32.952339
##########                      Grid_es_energy:           -4.846838
##########           Internal_energy_repulsive:           12.238460

@<TRIPOS>MOLECULE
ZINC000744839011
 43 43 1 0 0
SMALL
USER_CHARGES


@<TRIPOS>ATOM
      1 C1        -10.9298   -3.0064   55.3170 C.3     1  ZINC000744839011    0.0400
      2 O2        -10.2622   -4.0098   56.1269 O.3     1  ZINC000744839011   -0.3600
      3 C3        -10.8655   -4.3680   57.2772 C.2     1  ZINC000744839011    0.5100
      4 O4        -11.5484   -5.3723   57.3179 O.2     1  ZINC000744839011   -0.5000
      5 C5        -10.6972   -3.5413   58.4866 C.ar    1  ZINC000744839011   -0.1600
      6 C6         -9.5013   -3.5907   59.2083 C.ar    1  ZINC000744839011   -0.0100
      7 C7         -9.3475   -2.8168   60.3371 C.ar    1  ZINC000744839011   -0.2100
      8 C8        -10.3791   -1.9873   60.7594 C.ar    1  ZINC000744839011    0.1800
      9 O9        -10.2232   -1.2263   61.8724 O.3     1  ZINC000744839011   -0.2900
     10 C10        -9.1196   -0.3187   61.8883 C.3     1  ZINC000744839011    0.0500
     11 C11        -9.0199    0.3387   63.2664 C.3     1  ZINC000744839011    0.0600
     12 O12        -8.7779   -0.6800   64.2723 O.3     1  ZINC000744839011   -0.3400
     13 C13        -8.5159   -0.2557   65.5186 C.2     1  ZINC000744839011    0.5000
     14 O14        -8.3022   -1.0572   66.3970 O.2     1  ZINC000744839011   -0.4900
     15 C15        -8.4881    1.2201   65.8219 C.3     1  ZINC000744839011   -0.6400
     16 S16        -6.7679    1.7705   65.9908 S.o2    1  ZINC000744839011    2.4400
     17 O17        -6.2351    1.2292   67.1917 O.2     1  ZINC000744839011   -0.9100
     18 O18        -6.0936    1.5316   64.7630 O.2     1  ZINC000744839011   -0.9100
     19 C19        -6.9663    3.5612   66.2021 C.3     1  ZINC000744839011   -0.5700
     20 C20        -7.8101    3.8372   67.4483 C.3     1  ZINC000744839011   -0.1500
     21 C21        -5.5907    4.2112   66.3633 C.3     1  ZINC000744839011   -0.1500
     22 C22       -11.5712   -1.9342   60.0441 C.ar    1  ZINC000744839011   -0.0800
     23 Cl23      -12.8563   -0.8954   60.5764 Cl      1  ZINC000744839011   -0.0400
     24 C24       -11.7313   -2.7015   58.9112 C.ar    1  ZINC000744839011   -0.0100
     25 H25       -11.9166   -3.3693   55.0294 H       1  ZINC000744839011    0.0700
     26 H26       -11.0344   -2.0862   55.8918 H       1  ZINC000744839011    0.0700
     27 H27       -10.3397   -2.8105   54.4217 H       1  ZINC000744839011    0.1100
     28 H28        -8.6989   -4.2354   58.8814 H       1  ZINC000744839011    0.1500
     29 H29        -8.4237   -2.8551   60.8952 H       1  ZINC000744839011    0.1500
     30 H30        -8.1987   -0.8627   61.6779 H       1  ZINC000744839011    0.0900
     31 H31        -9.2695    0.4491   61.1295 H       1  ZINC000744839011    0.1000
     32 H32        -8.1977    1.0543   63.2688 H       1  ZINC000744839011    0.1100
     33 H33        -9.9527    0.8562   63.4904 H       1  ZINC000744839011    0.0900
     34 H34        -8.9666    1.7671   65.0095 H       1  ZINC000744839011    0.1700
     35 H35        -9.0234    1.4099   66.7523 H       1  ZINC000744839011    0.1700
     36 H36        -7.4646    3.9774   65.3265 H       1  ZINC000744839011    0.1400
     37 H37        -7.9293    4.9131   67.5753 H       1  ZINC000744839011    0.0900
     38 H38        -8.7901    3.3741   67.3334 H       1  ZINC000744839011    0.0700
     39 H39        -7.3118    3.4210   68.3239 H       1  ZINC000744839011    0.0800
     40 H40        -4.9897    4.0146   65.4755 H       1  ZINC000744839011    0.0800
     41 H41        -5.7100    5.2872   66.4903 H       1  ZINC000744839011    0.0900
     42 H42        -5.0926    3.7951   67.2389 H       1  ZINC000744839011    0.0800
     43 H43       -12.6568   -2.6601   58.3563 H       1  ZINC000744839011    0.1600
@<TRIPOS>BOND
     1     1     2    1
     2     1    25    1
     3     1    26    1
     4     1    27    1
     5     2     3    1
     6     3     4    2
     7     3     5    1
     8     5    24   ar
     9     5     6   ar
    10     6     7   ar
    11     6    28    1
    12     7     8   ar
    13     7    29    1
    14     8     9    1
    15     8    22   ar
    16     9    10    1
    17    10    11    1
    18    10    30    1
    19    10    31    1
    20    11    12    1
    21    11    32    1
    22    11    33    1
    23    12    13    1
    24    13    14    2
    25    13    15    1
    26    15    16    1
    27    15    34    1
    28    15    35    1
    29    16    17    2
    30    16    18    2
    31    16    19    1
    32    19    20    1
    33    19    21    1
    34    19    36    1
    35    20    37    1
    36    20    38    1
    37    20    39    1
    38    21    40    1
    39    21    41    1
    40    21    42    1
    41    22    23    1
    42    22    24   ar
    43    24    43    1
@<TRIPOS>SUBSTRUCTURE
     1 ZINC000744839011        1 TEMP              0 ****  ****    0 ROOT


##########                                Name:    ZINC000151820600
##########                DOCK_Rotatable_Bonds:                  10
##########                         Heavy_Atoms:                  25
##########                    Molecular_Weight:             388.915
##########                DOCK_Rotatable_Bonds:                  10
##########                       Formal_Charge:           0.0499998
##########                     HBond_Acceptors:                   8
##########                        HBond_Donors:                   2
##########                         Heavy_Atoms:                  25
##########                          Grid_Score:          -37.790100
##########                     Grid_vdw_energy:          -33.539604
##########                      Grid_es_energy:           -4.250495
##########           Internal_energy_repulsive:           28.519569

@<TRIPOS>MOLECULE
ZINC000151820600
 50 50 1 0 0
SMALL
USER_CHARGES


@<TRIPOS>ATOM
      1 C1        -12.7132   -0.1515   61.7401 C.3     1  ZINC000151820600   -0.4900
      2 S2        -14.1169   -0.7571   60.7636 S.o     1  ZINC000151820600    1.2500
      3 O3        -15.3149   -0.1521   61.2306 O.2     1  ZINC000151820600   -0.8500
      4 C4        -14.1457   -2.5299   61.1465 C.3     1  ZINC000151820600   -0.4500
      5 C5        -15.2940   -3.1971   60.3870 C.3     1  ZINC000151820600   -0.1100
      6 C6        -15.1426   -2.9225   58.8894 C.3     1  ZINC000151820600    0.1200
      7 N7        -13.8916   -3.5141   58.4085 N.am    1  ZINC000151820600   -0.7200
      8 C8        -13.4625   -3.2581   57.1568 C.2     1  ZINC000151820600    0.5200
      9 O9        -14.1129   -2.5391   56.4280 O.2     1  ZINC000151820600   -0.5200
     10 C10       -12.1748   -3.8651   56.6627 C.3     1  ZINC000151820600    0.1900
     11 H11       -12.2546   -4.9520   56.6820 H       1  ZINC000151820600    0.1300
     12 N12       -11.9191   -3.4185   55.2910 N.am    1  ZINC000151820600   -0.6900
     13 C13       -12.7549   -3.7805   54.2976 C.2     1  ZINC000151820600    0.6600
     14 O14       -13.7197   -4.4784   54.5393 O.2     1  ZINC000151820600   -0.5600
     15 O15       -12.5207   -3.3687   53.0373 O.3     1  ZINC000151820600   -0.3600
     16 C16       -12.5004   -1.9356   52.8051 C.3     1  ZINC000151820600    0.1400
     17 C17       -13.4824   -1.2506   53.7577 C.3     1  ZINC000151820600   -0.1800
     18 C18       -11.0895   -1.3986   53.0545 C.3     1  ZINC000151820600   -0.1400
     19 C19       -12.9076   -1.6472   51.3589 C.3     1  ZINC000151820600   -0.1800
     20 C20       -11.0398   -3.4288   57.5529 C.ar    1  ZINC000151820600   -0.1000
     21 C21       -10.4693   -4.3267   58.4354 C.ar    1  ZINC000151820600   -0.0900
     22 C22        -9.4276   -3.9273   59.2520 C.ar    1  ZINC000151820600   -0.1000
     23 C23        -8.9564   -2.6298   59.1867 C.ar    1  ZINC000151820600   -0.1000
     24 C24        -9.5271   -1.7304   58.3034 C.ar    1  ZINC000151820600   -0.0300
     25 Cl25       -8.9355   -0.1005   58.2204 Cl      1  ZINC000151820600   -0.0600
     26 C26       -10.5656   -2.1322   57.4827 C.ar    1  ZINC000151820600   -0.0900
     27 H27       -12.8935   -0.3490   62.7968 H       1  ZINC000151820600    0.0800
     28 H28       -11.8037   -0.6630   61.4249 H       1  ZINC000151820600    0.1100
     29 H29       -12.5988    0.9214   61.5854 H       1  ZINC000151820600    0.1100
     30 H30       -13.2004   -2.9820   60.8461 H       1  ZINC000151820600    0.1200
     31 H31       -14.2902   -2.6679   62.2180 H       1  ZINC000151820600    0.0900
     32 H32       -15.2701   -4.2725   60.5634 H       1  ZINC000151820600    0.0800
     33 H33       -16.2441   -2.7927   60.7362 H       1  ZINC000151820600    0.0900
     34 H34       -15.9828   -3.3629   58.3525 H       1  ZINC000151820600    0.0800
     35 H35       -15.1254   -1.8463   58.7172 H       1  ZINC000151820600    0.0700
     36 H36       -13.3721   -4.0901   58.9910 H       1  ZINC000151820600    0.4000
     37 H37       -11.1482   -2.8624   55.0978 H       1  ZINC000151820600    0.4200
     38 H38       -13.1923   -1.4561   54.7882 H       1  ZINC000151820600    0.0600
     39 H39       -13.4671   -0.1748   53.5835 H       1  ZINC000151820600    0.0700
     40 H40       -14.4875   -1.6332   53.5801 H       1  ZINC000151820600    0.0900
     41 H41       -10.3898   -1.8865   52.3759 H       1  ZINC000151820600    0.0700
     42 H42       -11.0742   -0.3227   52.8803 H       1  ZINC000151820600    0.0800
     43 H43       -10.7994   -1.6040   54.0849 H       1  ZINC000151820600    0.0700
     44 H44       -13.9127   -2.0298   51.1812 H       1  ZINC000151820600    0.0900
     45 H45       -12.8923   -0.5714   51.1847 H       1  ZINC000151820600    0.0700
     46 H46       -12.2079   -2.1352   50.6802 H       1  ZINC000151820600    0.0600
     47 H47       -10.8377   -5.3407   58.4872 H       1  ZINC000151820600    0.1300
     48 H48        -8.9821   -4.6293   59.9413 H       1  ZINC000151820600    0.1400
     49 H49        -8.1432   -2.3177   59.8252 H       1  ZINC000151820600    0.1400
     50 H50       -11.0114   -1.4308   56.7930 H       1  ZINC000151820600    0.1400
@<TRIPOS>BOND
     1     1     2    1
     2     1    27    1
     3     1    28    1
     4     1    29    1
     5     2     3    2
     6     2     4    1
     7     4     5    1
     8     4    30    1
     9     4    31    1
    10     5     6    1
    11     5    32    1
    12     5    33    1
    13     6     7    1
    14     6    34    1
    15     6    35    1
    16     7     8   am
    17     7    36    1
    18     8     9    2
    19     8    10    1
    20    10    11    1
    21    10    12    1
    22    10    20    1
    23    12    13   am
    24    12    37    1
    25    13    14    2
    26    13    15    1
    27    15    16    1
    28    16    17    1
    29    16    18    1
    30    16    19    1
    31    17    38    1
    32    17    39    1
    33    17    40    1
    34    18    41    1
    35    18    42    1
    36    18    43    1
    37    19    44    1
    38    19    45    1
    39    19    46    1
    40    20    26   ar
    41    20    21   ar
    42    21    22   ar
    43    21    47    1
    44    22    23   ar
    45    22    48    1
    46    23    24   ar
    47    23    49    1
    48    24    25    1
    49    24    26   ar
    50    26    50    1
@<TRIPOS>SUBSTRUCTURE
     1 ZINC000151820600        1 TEMP              0 ****  ****    0 ROOT


##########                                Name:    ZINC000484900616
##########                DOCK_Rotatable_Bonds:                  10
##########                         Heavy_Atoms:                  29
##########                    Molecular_Weight:             415.556
##########                DOCK_Rotatable_Bonds:                  10
##########                       Formal_Charge:        -1.49012e-08
##########                     HBond_Acceptors:                   7
##########                        HBond_Donors:                   1
##########                         Heavy_Atoms:                  29
##########                          Grid_Score:          -37.777107
##########                     Grid_vdw_energy:          -36.128456
##########                      Grid_es_energy:           -1.648651
##########           Internal_energy_repulsive:           14.186171

@<TRIPOS>MOLECULE
ZINC000484900616
 58 60 1 0 0
SMALL
USER_CHARGES


@<TRIPOS>ATOM
      1 C1        -11.9022    2.0512   60.9064 C.3     1  ZINC000484900616   -0.1500
      2 C2        -12.4806    0.6387   61.0142 C.3     1  ZINC000484900616    0.0600
      3 O3        -13.3979    0.5759   62.1380 O.3     1  ZINC000484900616   -0.3400
      4 C4        -13.9525   -0.6224   62.4090 C.2     1  ZINC000484900616    0.5500
      5 O5        -14.0003   -1.0248   63.5549 O.2     1  ZINC000484900616   -0.5000
      6 C6        -14.4999   -1.4433   61.3177 C.2     1  ZINC000484900616    0.0200
      7 C7        -14.3829   -2.7903   61.2748 C.2     1  ZINC000484900616   -0.2400
      8 S8        -15.1467   -3.3654   59.8578 S.3     1  ZINC000484900616    0.2900
      9 C9        -15.5779   -1.7764   59.4046 C.2     1  ZINC000484900616    0.0300
     10 C10       -16.3422   -1.4177   58.1561 C.3     1  ZINC000484900616    0.1500
     11 H11       -17.2853   -1.9631   58.1196 H       1  ZINC000484900616    0.0900
     12 C12       -16.5996    0.1088   58.1013 C.3     1  ZINC000484900616   -0.1200
     13 C13       -16.7817    0.3414   56.5783 C.3     1  ZINC000484900616   -0.1400
     14 C14       -15.7840   -0.6558   55.9525 C.3     1  ZINC000484900616    0.0500
     15 N15       -15.5318   -1.7099   56.9546 N.3     1  ZINC000484900616   -0.5100
     16 C16       -15.8470   -3.0382   56.4123 C.3     1  ZINC000484900616    0.0300
     17 C17       -14.5846   -3.8564   56.3221 C.2     1  ZINC000484900616    0.5200
     18 O18       -14.5382   -4.9574   56.8288 O.2     1  ZINC000484900616   -0.5100
     19 N19       -13.5075   -3.3647   55.6785 N.am    1  ZINC000484900616   -0.7300
     20 C20       -12.2809   -4.1609   55.5893 C.3     1  ZINC000484900616    0.1900
     21 H21       -12.5288   -5.2198   55.6623 H       1  ZINC000484900616    0.1000
     22 C22       -11.5929   -3.8893   54.2499 C.3     1  ZINC000484900616   -0.1600
     23 C23       -11.3539   -3.7833   56.7158 C.ar    1  ZINC000484900616   -0.1000
     24 C24       -10.9653   -2.4668   56.8795 C.ar    1  ZINC000484900616   -0.1100
     25 C25       -10.1149   -2.1204   57.9128 C.ar    1  ZINC000484900616   -0.1100
     26 C26        -9.6534   -3.0904   58.7828 C.ar    1  ZINC000484900616   -0.0800
     27 C27        -8.7260   -2.7129   59.9091 C.3     1  ZINC000484900616   -0.0900
     28 C28        -9.5322   -2.5428   61.1983 C.3     1  ZINC000484900616   -0.1500
     29 C29       -10.0431   -4.4067   58.6200 C.ar    1  ZINC000484900616   -0.1100
     30 C30       -10.8965   -4.7525   57.5889 C.ar    1  ZINC000484900616   -0.1000
     31 N31       -15.1643   -0.9288   60.2791 N.2     1  ZINC000484900616   -0.4300
     32 H32       -12.7121    2.7649   60.7549 H       1  ZINC000484900616    0.0700
     33 H33       -11.3689    2.2965   61.8249 H       1  ZINC000484900616    0.0700
     34 H34       -11.2137    2.0984   60.0627 H       1  ZINC000484900616    0.0800
     35 H35       -13.0139    0.3935   60.0958 H       1  ZINC000484900616    0.0700
     36 H36       -11.6708   -0.0749   61.1657 H       1  ZINC000484900616    0.0700
     37 H37       -13.8879   -3.4022   62.0145 H       1  ZINC000484900616    0.1900
     38 H38       -17.5054    0.3720   58.6476 H       1  ZINC000484900616    0.0900
     39 H39       -15.7415    0.6634   58.4811 H       1  ZINC000484900616    0.0800
     40 H40       -17.8018    0.1091   56.2723 H       1  ZINC000484900616    0.0700
     41 H41       -16.5218    1.3656   56.3109 H       1  ZINC000484900616    0.0800
     42 H42       -16.2147   -1.0966   55.0535 H       1  ZINC000484900616    0.0600
     43 H43       -14.8529   -0.1446   55.7080 H       1  ZINC000484900616    0.0900
     44 H44       -16.5586   -3.5391   57.0686 H       1  ZINC000484900616    0.1100
     45 H45       -16.2822   -2.9309   55.4187 H       1  ZINC000484900616    0.0700
     46 H46       -13.5442   -2.4837   55.2745 H       1  ZINC000484900616    0.4000
     47 H47       -10.6803   -4.4816   54.1835 H       1  ZINC000484900616    0.0700
     48 H48       -12.2635   -4.1624   53.4351 H       1  ZINC000484900616    0.0700
     49 H49       -11.3450   -2.8304   54.1770 H       1  ZINC000484900616    0.0600
     50 H50       -11.3259   -1.7089   56.1997 H       1  ZINC000484900616    0.1200
     51 H51        -9.8108   -1.0919   58.0402 H       1  ZINC000484900616    0.1200
     52 H52        -7.9827   -3.4982   60.0463 H       1  ZINC000484900616    0.0700
     53 H53        -8.2243   -1.7758   59.6679 H       1  ZINC000484900616    0.0700
     54 H54       -10.2755   -1.7575   61.0610 H       1  ZINC000484900616    0.0600
     55 H55       -10.0339   -3.4799   61.4394 H       1  ZINC000484900616    0.0600
     56 H56        -8.8614   -2.2697   62.0128 H       1  ZINC000484900616    0.0600
     57 H57        -9.6828   -5.1646   59.3000 H       1  ZINC000484900616    0.1200
     58 H58       -11.2010   -5.7809   57.4618 H       1  ZINC000484900616    0.1200
@<TRIPOS>BOND
     1     1     2    1
     2     1    32    1
     3     1    33    1
     4     1    34    1
     5     2     3    1
     6     2    35    1
     7     2    36    1
     8     3     4    1
     9     4     5    2
    10     4     6    1
    11     6    31    1
    12     6     7    2
    13     7     8    1
    14     7    37    1
    15     8     9    1
    16     9    10    1
    17     9    31    2
    18    10    11    1
    19    10    15    1
    20    10    12    1
    21    12    13    1
    22    12    38    1
    23    12    39    1
    24    13    14    1
    25    13    40    1
    26    13    41    1
    27    14    15    1
    28    14    42    1
    29    14    43    1
    30    15    16    1
    31    16    17    1
    32    16    44    1
    33    16    45    1
    34    17    18    2
    35    17    19   am
    36    19    20    1
    37    19    46    1
    38    20    21    1
    39    20    22    1
    40    20    23    1
    41    22    47    1
    42    22    48    1
    43    22    49    1
    44    23    30   ar
    45    23    24   ar
    46    24    25   ar
    47    24    50    1
    48    25    26   ar
    49    25    51    1
    50    26    27    1
    51    26    29   ar
    52    27    28    1
    53    27    52    1
    54    27    53    1
    55    28    54    1
    56    28    55    1
    57    28    56    1
    58    29    30   ar
    59    29    57    1
    60    30    58    1
@<TRIPOS>SUBSTRUCTURE
     1 ZINC000484900616        1 TEMP              0 ****  ****    0 ROOT


##########                                Name:    ZINC000504860563
##########                DOCK_Rotatable_Bonds:                   6
##########                         Heavy_Atoms:                  25
##########                    Molecular_Weight:             370.786
##########                DOCK_Rotatable_Bonds:                   6
##########                       Formal_Charge:                0.01
##########                     HBond_Acceptors:                   9
##########                        HBond_Donors:                   0
##########                         Heavy_Atoms:                  25
##########                          Grid_Score:          -37.753151
##########                     Grid_vdw_energy:          -36.527073
##########                      Grid_es_energy:           -1.226080
##########           Internal_energy_repulsive:           13.359627

@<TRIPOS>MOLECULE
ZINC000504860563
 42 44 1 0 0
SMALL
USER_CHARGES


@<TRIPOS>ATOM
      1 O1        -10.4381   -5.4435   57.9188 O.2     1  ZINC000504860563   -0.5100
      2 C2        -10.5612   -4.2697   57.6281 C.2     1  ZINC000504860563    0.5700
      3 C3        -11.4897   -3.8685   56.5499 C.ar    1  ZINC000504860563    0.0500
      4 N4        -11.0553   -3.8002   55.2965 N.ar    1  ZINC000504860563   -0.4100
      5 C5        -11.8480   -3.4485   54.3093 C.ar    1  ZINC000504860563    0.0600
      6 C6        -13.1792   -3.1323   54.5379 C.ar    1  ZINC000504860563   -0.1000
      7 C7        -13.6799   -3.1883   55.8263 C.ar    1  ZINC000504860563   -0.1700
      8 C8        -12.8219   -3.5689   56.8556 C.ar    1  ZINC000504860563    0.1400
      9 O9        -13.2679   -3.6385   58.1348 O.3     1  ZINC000504860563   -0.2600
     10 C10       -14.6301   -3.2746   58.3675 C.3     1  ZINC000504860563   -0.0100
     11 C11       -14.9679   -3.4813   59.8453 C.3     1  ZINC000504860563    0.2800
     12 F12       -14.1260   -2.6872   60.6316 F       1  ZINC000504860563   -0.1900
     13 F13       -16.2994   -3.1181   60.0746 F       1  ZINC000504860563   -0.1900
     14 N14        -9.8553   -3.3333   58.2925 N.am    1  ZINC000504860563   -0.6000
     15 C15       -10.0022   -1.9095   57.9608 C.3     1  ZINC000504860563    0.0800
     16 C16       -10.3378   -1.1372   59.2404 C.3     1  ZINC000504860563   -0.1500
     17 C17        -9.2740   -1.4288   60.3013 C.3     1  ZINC000504860563    0.1600
     18 N18        -9.5735   -0.6659   61.5155 N.pl3   1  ZINC000504860563   -0.3600
     19 C19        -8.8468   -0.6665   62.6537 C.2     1  ZINC000504860563    0.0700
     20 C20        -9.4554    0.1646   63.5319 C.2     1  ZINC000504860563   -0.1900
     21 Cl21       -8.9197    0.5162   65.1454 Cl      1  ZINC000504860563   -0.0400
     22 C22       -10.5927    0.6909   62.9090 C.2     1  ZINC000504860563    0.0600
     23 N23       -10.6612    0.1977   61.6990 N.2     1  ZINC000504860563   -0.2800
     24 C24        -9.2717   -2.9243   60.6262 C.3     1  ZINC000504860563   -0.1400
     25 C25        -8.9286   -3.7164   59.3664 C.3     1  ZINC000504860563    0.1200
     26 H26       -11.4567   -3.4046   53.3036 H       1  ZINC000504860563    0.1700
     27 H27       -13.8192   -2.8444   53.7170 H       1  ZINC000504860563    0.1500
     28 H28       -14.7129   -2.9465   56.0288 H       1  ZINC000504860563    0.1500
     29 H29       -14.7762   -2.2268   58.1045 H       1  ZINC000504860563    0.1000
     30 H30       -15.2823   -3.8972   57.7551 H       1  ZINC000504860563    0.1000
     31 H31       -14.8270   -4.5299   60.1070 H       1  ZINC000504860563    0.1300
     32 H32        -9.0690   -1.5339   57.5413 H       1  ZINC000504860563    0.0700
     33 H33       -10.8073   -1.7843   57.2367 H       1  ZINC000504860563    0.1600
     34 H34       -10.3548   -0.0685   59.0265 H       1  ZINC000504860563    0.0900
     35 H35       -11.3145   -1.4506   59.6091 H       1  ZINC000504860563    0.0700
     36 H36        -8.2941   -1.1382   59.9223 H       1  ZINC000504860563    0.1100
     37 H37        -7.9425   -1.2296   62.8317 H       1  ZINC000504860563    0.1800
     38 H38       -11.2912    1.3867   63.3497 H       1  ZINC000504860563    0.1900
     39 H39        -8.5299   -3.1276   61.3986 H       1  ZINC000504860563    0.0900
     40 H40       -10.2584   -3.2208   60.9817 H       1  ZINC000504860563    0.0800
     41 H41        -9.0226   -4.7833   59.5686 H       1  ZINC000504860563    0.1000
     42 H42        -7.9079   -3.4893   59.0586 H       1  ZINC000504860563    0.0800
@<TRIPOS>BOND
     1     1     2    2
     2     2     3    1
     3     2    14   am
     4     3     8   ar
     5     3     4   ar
     6     4     5   ar
     7     5     6   ar
     8     5    26    1
     9     6     7   ar
    10     6    27    1
    11     7     8   ar
    12     7    28    1
    13     8     9    1
    14     9    10    1
    15    10    11    1
    16    10    29    1
    17    10    30    1
    18    11    12    1
    19    11    13    1
    20    11    31    1
    21    14    25    1
    22    14    15    1
    23    15    16    1
    24    15    32    1
    25    15    33    1
    26    16    17    1
    27    16    34    1
    28    16    35    1
    29    17    18    1
    30    17    24    1
    31    17    36    1
    32    18    23    1
    33    18    19    1
    34    19    20    2
    35    19    37    1
    36    20    21    1
    37    20    22    1
    38    22    23    2
    39    22    38    1
    40    24    25    1
    41    24    39    1
    42    24    40    1
    43    25    41    1
    44    25    42    1
@<TRIPOS>SUBSTRUCTURE
     1 ZINC000504860563        1 TEMP              0 ****  ****    0 ROOT


##########                                Name:    ZINC000583220082
##########                DOCK_Rotatable_Bonds:                   9
##########                         Heavy_Atoms:                  29
##########                    Molecular_Weight:             417.492
##########                DOCK_Rotatable_Bonds:                   9
##########                       Formal_Charge:          -0.0400006
##########                     HBond_Acceptors:                  11
##########                        HBond_Donors:                   3
##########                         Heavy_Atoms:                  29
##########                          Grid_Score:          -37.741070
##########                     Grid_vdw_energy:          -37.136955
##########                      Grid_es_energy:           -0.604114
##########           Internal_energy_repulsive:           14.265616

@<TRIPOS>MOLECULE
ZINC000583220082
 52 54 1 0 0
SMALL
USER_CHARGES


@<TRIPOS>ATOM
      1 C1        -14.1122   -1.1017   48.3503 C.3     1  ZINC000583220082    0.0800
      2 N2        -14.7435   -1.5990   49.5752 N.am    1  ZINC000583220082   -0.6300
      3 C3        -16.0144   -2.3239   49.5021 C.3     1  ZINC000583220082    0.0800
      4 C4        -14.1548   -1.3897   50.7694 C.2     1  ZINC000583220082    0.5100
      5 O5        -13.1018   -0.7908   50.8298 O.2     1  ZINC000583220082   -0.5300
      6 C6        -14.8050   -1.8996   52.0296 C.3     1  ZINC000583220082   -0.1000
      7 C7        -13.7428   -2.2128   53.0518 C.ar    1  ZINC000583220082   -0.0800
      8 C8        -13.4112   -1.2743   54.0118 C.ar    1  ZINC000583220082   -0.0800
      9 C9        -12.4383   -1.5579   54.9499 C.ar    1  ZINC000583220082   -0.1400
     10 C10       -11.7930   -2.7880   54.9289 C.ar    1  ZINC000583220082    0.1400
     11 N11       -10.8084   -3.0786   55.8768 N.am    1  ZINC000583220082   -0.6400
     12 C12       -11.1597   -3.3792   57.1428 C.2     1  ZINC000583220082    0.5100
     13 O13       -12.3313   -3.3976   57.4594 O.2     1  ZINC000583220082   -0.4900
     14 C14       -10.1073   -3.6897   58.1561 C.2     1  ZINC000583220082    0.5100
     15 O15        -9.7055   -4.8277   58.2846 O.2     1  ZINC000583220082   -0.5100
     16 N16        -9.6036   -2.7062   58.9277 N.am    1  ZINC000583220082   -0.5800
     17 C17       -10.0807   -1.3215   58.7926 C.3     1  ZINC000583220082    0.0600
     18 C18       -10.4648   -0.8012   60.1818 C.3     1  ZINC000583220082    0.0300
     19 N19        -9.3317   -0.9811   61.0991 N.3     1  ZINC000583220082   -0.4300
     20 C20        -9.5805   -0.3781   62.3183 C.2     1  ZINC000583220082    0.2900
     21 N21       -10.7241    0.1091   62.7514 N.2     1  ZINC000583220082   -0.5700
     22 C22       -10.7240    0.6408   63.9564 C.2     1  ZINC000583220082    0.5400
     23 N23       -11.8849    1.1833   64.5060 N.pl3   1  ZINC000583220082   -0.8200
     24 N24        -9.5979    0.6417   64.6185 N.2     1  ZINC000583220082   -0.5500
     25 S25        -8.4627   -0.1090   63.6011 S.3     1  ZINC000583220082    0.2000
     26 C26        -9.0064   -2.4032   61.2718 C.3     1  ZINC000583220082    0.0500
     27 C27        -8.5668   -2.9902   59.9315 C.3     1  ZINC000583220082    0.1100
     28 C28       -12.1289   -3.7287   53.9632 C.ar    1  ZINC000583220082   -0.1200
     29 C29       -13.1060   -3.4402   53.0311 C.ar    1  ZINC000583220082   -0.0800
     30 H30       -14.4667   -0.0920   48.1429 H       1  ZINC000583220082    0.0500
     31 H31       -13.0299   -1.0874   48.4791 H       1  ZINC000583220082    0.0800
     32 H32       -14.3703   -1.7557   47.5173 H       1  ZINC000583220082    0.0700
     33 H33       -16.3331   -2.3944   48.4620 H       1  ZINC000583220082    0.0800
     34 H34       -15.8853   -3.3258   49.9113 H       1  ZINC000583220082    0.0600
     35 H35       -16.7705   -1.7907   50.0783 H       1  ZINC000583220082    0.0600
     36 H36       -15.4769   -1.1381   52.4256 H       1  ZINC000583220082    0.1000
     37 H37       -15.3718   -2.8034   51.8060 H       1  ZINC000583220082    0.1000
     38 H38       -13.9133   -0.3182   54.0276 H       1  ZINC000583220082    0.1300
     39 H39       -12.1793   -0.8243   55.6990 H       1  ZINC000583220082    0.1300
     40 H40        -9.8721   -3.0638   55.6238 H       1  ZINC000583220082    0.4200
     41 H41        -9.2882   -0.7002   58.3752 H       1  ZINC000583220082    0.0900
     42 H42       -10.9521   -1.2966   58.1384 H       1  ZINC000583220082    0.1700
     43 H43       -10.7159    0.2575   60.1171 H       1  ZINC000583220082    0.1100
     44 H44       -11.3254   -1.3574   60.5534 H       1  ZINC000583220082    0.0700
     45 H45       -11.9379    1.3494   65.4601 H       1  ZINC000583220082    0.4200
     46 H46       -12.6393    1.3947   63.9341 H       1  ZINC000583220082    0.4200
     47 H47        -8.1996   -2.5062   61.9976 H       1  ZINC000583220082    0.1100
     48 H48        -9.8873   -2.9370   61.6281 H       1  ZINC000583220082    0.0600
     49 H49        -8.4350   -4.0677   60.0293 H       1  ZINC000583220082    0.1100
     50 H50        -7.6288   -2.5304   59.6204 H       1  ZINC000583220082    0.0900
     51 H51       -11.6291   -4.6860   53.9440 H       1  ZINC000583220082    0.1400
     52 H52       -13.3678   -4.1710   52.2802 H       1  ZINC000583220082    0.1300
@<TRIPOS>BOND
     1     1     2    1
     2     1    30    1
     3     1    31    1
     4     1    32    1
     5     2     3    1
     6     2     4   am
     7     3    33    1
     8     3    34    1
     9     3    35    1
    10     4     5    2
    11     4     6    1
    12     6     7    1
    13     6    36    1
    14     6    37    1
    15     7    29   ar
    16     7     8   ar
    17     8     9   ar
    18     8    38    1
    19     9    10   ar
    20     9    39    1
    21    10    11    1
    22    10    28   ar
    23    11    12   am
    24    11    40    1
    25    12    13    2
    26    12    14    1
    27    14    15    2
    28    14    16   am
    29    16    27    1
    30    16    17    1
    31    17    18    1
    32    17    41    1
    33    17    42    1
    34    18    19    1
    35    18    43    1
    36    18    44    1
    37    19    20    1
    38    19    26    1
    39    20    25    1
    40    20    21    2
    41    21    22    1
    42    22    23    1
    43    22    24    2
    44    23    45    1
    45    23    46    1
    46    24    25    1
    47    26    27    1
    48    26    47    1
    49    26    48    1
    50    27    49    1
    51    27    50    1
    52    28    29   ar
    53    28    51    1
    54    29    52    1
@<TRIPOS>SUBSTRUCTURE
     1 ZINC000583220082        1 TEMP              0 ****  ****    0 ROOT


##########                                Name:    ZINC000555499135
##########                DOCK_Rotatable_Bonds:                   8
##########                         Heavy_Atoms:                  26
##########                    Molecular_Weight:             377.554
##########                DOCK_Rotatable_Bonds:                   8
##########                       Formal_Charge:           0.0399999
##########                     HBond_Acceptors:                   7
##########                        HBond_Donors:                   0
##########                         Heavy_Atoms:                  26
##########                          Grid_Score:          -37.734051
##########                     Grid_vdw_energy:          -37.359226
##########                      Grid_es_energy:           -0.374823
##########           Internal_energy_repulsive:           13.884089

@<TRIPOS>MOLECULE
ZINC000555499135
 57 59 1 0 0
SMALL
USER_CHARGES


@<TRIPOS>ATOM
      1 C1         -9.0373    0.5112   66.1257 C.3     1  ZINC000555499135   -0.1500
      2 C2         -8.5738    1.2203   64.8516 C.3     1  ZINC000555499135   -0.0500
      3 C3         -9.0781    0.4688   63.6467 C.2     1  ZINC000555499135   -0.2100
      4 C4        -10.1820    0.7520   62.9487 C.2     1  ZINC000555499135    0.0300
      5 N5        -10.4091   -0.0567   61.9333 N.2     1  ZINC000555499135   -0.4500
      6 C6         -9.5581   -1.0062   61.7357 C.2     1  ZINC000555499135    0.0400
      7 C7         -9.6460   -2.0271   60.6307 C.3     1  ZINC000555499135    0.1500
      8 N8        -10.0535   -1.3655   59.3841 N.3     1  ZINC000555499135   -0.4500
      9 C9         -9.0608   -0.3651   58.9701 C.3     1  ZINC000555499135    0.0100
     10 C10       -10.2729   -2.2932   58.3782 C.2     1  ZINC000555499135    0.3500
     11 N11        -9.4889   -3.2950   58.0566 N.2     1  ZINC000555499135   -0.3100
     12 N12       -10.0001   -3.9529   57.0780 N.2     1  ZINC000555499135   -0.2900
     13 C13       -11.1314   -3.4144   56.7202 C.2     1  ZINC000555499135    0.2100
     14 C14       -12.0366   -3.8902   55.6132 C.3     1  ZINC000555499135   -0.0300
     15 C15       -11.3045   -3.7826   54.2741 C.3     1  ZINC000555499135   -0.0900
     16 C16       -12.1383   -4.4549   53.1816 C.3     1  ZINC000555499135   -0.1500
     17 C17       -11.0977   -2.3078   53.9229 C.3     1  ZINC000555499135   -0.1500
     18 N18       -11.3479   -2.3409   57.5391 N.pl3   1  ZINC000555499135   -0.4600
     19 C19       -12.4922   -1.4266   57.5149 C.3     1  ZINC000555499135    0.1100
     20 C20       -13.5077   -1.8522   58.5771 C.3     1  ZINC000555499135    0.0700
     21 H21       -13.0301   -1.8529   59.5570 H       1  ZINC000555499135    0.0700
     22 C22       -14.0207   -3.2589   58.2583 C.3     1  ZINC000555499135   -0.1500
     23 C23       -15.0805   -3.6539   59.2914 C.3     1  ZINC000555499135   -0.1200
     24 C24       -16.2015   -2.6101   59.2813 C.3     1  ZINC000555499135   -0.1600
     25 C25       -15.6042   -1.2283   59.5606 C.3     1  ZINC000555499135    0.0600
     26 O26       -14.6045   -0.9362   58.5823 O.3     1  ZINC000555499135   -0.3700
     27 S27        -8.3124   -0.9339   62.9046 S.3     1  ZINC000555499135    0.1200
     28 H28       -10.1266    0.4786   66.1475 H       1  ZINC000555499135    0.0600
     29 H29        -8.6429   -0.5049   66.1400 H       1  ZINC000555499135    0.0600
     30 H30        -8.6725    1.0548   66.9972 H       1  ZINC000555499135    0.0700
     31 H31        -8.9681    2.2363   64.8373 H       1  ZINC000555499135    0.0900
     32 H32        -7.4845    1.2529   64.8298 H       1  ZINC000555499135    0.0800
     33 H33       -10.8345    1.5761   63.1966 H       1  ZINC000555499135    0.1800
     34 H34        -8.6722   -2.4965   60.4914 H       1  ZINC000555499135    0.0800
     35 H35       -10.3810   -2.7871   60.8958 H       1  ZINC000555499135    0.1200
     36 H36        -8.1332   -0.8664   58.6936 H       1  ZINC000555499135    0.0500
     37 H37        -9.4416    0.1923   58.1143 H       1  ZINC000555499135    0.0800
     38 H38        -8.8708    0.3213   59.7954 H       1  ZINC000555499135    0.0900
     39 H39       -12.3150   -4.9286   55.7927 H       1  ZINC000555499135    0.1000
     40 H40       -12.9343   -3.2725   55.5874 H       1  ZINC000555499135    0.1000
     41 H41       -10.3362   -4.2775   54.3486 H       1  ZINC000555499135    0.0800
     42 H42       -12.3194   -5.4954   53.4513 H       1  ZINC000555499135    0.0500
     43 H43       -13.0908   -3.9349   53.0797 H       1  ZINC000555499135    0.0600
     44 H44       -11.5986   -4.4136   52.2354 H       1  ZINC000555499135    0.0600
     45 H45       -10.5037   -1.8288   54.7013 H       1  ZINC000555499135    0.0600
     46 H46       -10.5762   -2.2311   52.9689 H       1  ZINC000555499135    0.0600
     47 H47       -12.0661   -1.8129   53.8485 H       1  ZINC000555499135    0.0600
     48 H48       -12.1514   -0.4125   57.7237 H       1  ZINC000555499135    0.1100
     49 H49       -12.9609   -1.4570   56.5313 H       1  ZINC000555499135    0.1200
     50 H50       -14.4622   -3.2684   57.2617 H       1  ZINC000555499135    0.0800
     51 H51       -13.1924   -3.9664   58.2975 H       1  ZINC000555499135    0.0800
     52 H52       -15.4904   -4.6315   59.0380 H       1  ZINC000555499135    0.0700
     53 H53       -14.6274   -3.6927   60.2821 H       1  ZINC000555499135    0.0600
     54 H54       -16.6870   -2.6064   58.3054 H       1  ZINC000555499135    0.0700
     55 H55       -16.9328   -2.8533   60.0521 H       1  ZINC000555499135    0.0800
     56 H56       -16.3911   -0.4757   59.5123 H       1  ZINC000555499135    0.1000
     57 H57       -15.1542   -1.2209   60.5533 H       1  ZINC000555499135    0.0500
@<TRIPOS>BOND
     1     1     2    1
     2     1    28    1
     3     1    29    1
     4     1    30    1
     5     2     3    1
     6     2    31    1
     7     2    32    1
     8     3    27    1
     9     3     4    2
    10     4     5    1
    11     4    33    1
    12     5     6    2
    13     6     7    1
    14     6    27    1
    15     7     8    1
    16     7    34    1
    17     7    35    1
    18     8     9    1
    19     8    10    1
    20     9    36    1
    21     9    37    1
    22     9    38    1
    23    10    18    1
    24    10    11    2
    25    11    12    1
    26    12    13    2
    27    13    14    1
    28    13    18    1
    29    14    15    1
    30    14    39    1
    31    14    40    1
    32    15    16    1
    33    15    17    1
    34    15    41    1
    35    16    42    1
    36    16    43    1
    37    16    44    1
    38    17    45    1
    39    17    46    1
    40    17    47    1
    41    18    19    1
    42    19    20    1
    43    19    48    1
    44    19    49    1
    45    20    21    1
    46    20    26    1
    47    20    22    1
    48    22    23    1
    49    22    50    1
    50    22    51    1
    51    23    24    1
    52    23    52    1
    53    23    53    1
    54    24    25    1
    55    24    54    1
    56    24    55    1
    57    25    26    1
    58    25    56    1
    59    25    57    1
@<TRIPOS>SUBSTRUCTURE
     1 ZINC000555499135        1 TEMP              0 ****  ****    0 ROOT


##########                                Name:    ZINC001083519372
##########                DOCK_Rotatable_Bonds:                   7
##########                         Heavy_Atoms:                  27
##########                    Molecular_Weight:             370.411
##########                DOCK_Rotatable_Bonds:                   7
##########                       Formal_Charge:           0.0399996
##########                     HBond_Acceptors:                   9
##########                        HBond_Donors:                   2
##########                         Heavy_Atoms:                  27
##########                          Grid_Score:          -37.616760
##########                     Grid_vdw_energy:          -35.202152
##########                      Grid_es_energy:           -2.414610
##########           Internal_energy_repulsive:            9.583861

@<TRIPOS>MOLECULE
ZINC001083519372
 49 52 1 0 0
SMALL
USER_CHARGES


@<TRIPOS>ATOM
      1 C1        -10.1281    1.6117   54.4794 C.3     1  ZINC001083519372   -0.1500
      2 C2        -10.6241    0.7867   53.2902 C.3     1  ZINC001083519372   -0.0100
      3 C3        -11.1345    1.7259   52.1955 C.3     1  ZINC001083519372   -0.1500
      4 C4         -9.4908   -0.0464   52.7491 C.2     1  ZINC001083519372   -0.0100
      5 C5         -9.5868   -1.2782   52.2222 C.2     1  ZINC001083519372   -0.0100
      6 C6        -10.8520   -2.0816   52.0639 C.3     1  ZINC001083519372    0.1300
      7 N7        -10.9593   -3.0481   53.1649 N.3     1  ZINC001083519372   -0.5000
      8 C8        -11.3110   -2.3680   54.4377 C.3     1  ZINC001083519372    0.0300
      9 C9        -11.8848   -3.5156   55.3061 C.3     1  ZINC001083519372    0.1500
     10 H10       -11.0808   -4.0959   55.7589 H       1  ZINC001083519372    0.1200
     11 N11       -12.7835   -2.9873   56.3354 N.am    1  ZINC001083519372   -0.6900
     12 C12       -13.2068   -3.7860   57.3350 C.2     1  ZINC001083519372    0.5600
     13 O13       -12.8416   -4.9448   57.3834 O.2     1  ZINC001083519372   -0.5100
     14 C14       -14.1130   -3.2546   58.3704 C.2     1  ZINC001083519372    0.1400
     15 C15       -15.4653   -3.4456   58.2779 C.2     1  ZINC001083519372   -0.1500
     16 C16       -16.3000   -2.9284   59.2776 C.2     1  ZINC001083519372    0.1800
     17 N17       -15.7933   -2.2685   60.2913 N.2     1  ZINC001083519372   -0.4400
     18 C18       -14.4754   -2.0714   60.3997 C.2     1  ZINC001083519372    0.2500
     19 C19       -13.6968   -1.4209   61.3509 C.2     1  ZINC001083519372   -0.2500
     20 C20       -12.3739   -1.5261   60.9546 C.2     1  ZINC001083519372    0.1000
     21 N21       -12.3163   -2.1991   59.8260 N.2     1  ZINC001083519372   -0.3100
     22 N22       -13.6140   -2.5624   59.4501 N.pl3   1  ZINC001083519372   -0.3100
     23 C23       -12.6643   -4.3693   54.2796 C.3     1  ZINC001083519372    0.0900
     24 H24       -12.5344   -5.4302   54.4934 H       1  ZINC001083519372    0.0800
     25 O25       -14.0514   -4.0262   54.3006 O.3     1  ZINC001083519372   -0.5600
     26 C26       -12.0458   -4.0197   52.9134 C.3     1  ZINC001083519372    0.0100
     27 N27        -8.3506   -1.6653   51.8613 N.2     1  ZINC001083519372   -0.4800
     28 C28        -7.5128   -0.7112   52.1517 C.2     1  ZINC001083519372    0.1700
     29 O29        -8.1914    0.3068   52.6976 O.3     1  ZINC001083519372   -0.2000
     30 H30        -9.7643    0.9427   55.2593 H       1  ZINC001083519372    0.0600
     31 H31        -9.3186    2.2659   54.1554 H       1  ZINC001083519372    0.0600
     32 H32       -10.9477    2.2142   54.8708 H       1  ZINC001083519372    0.0700
     33 H33       -11.4334    0.1325   53.6141 H       1  ZINC001083519372    0.1000
     34 H34       -10.3252    2.3801   51.8715 H       1  ZINC001083519372    0.0600
     35 H35       -11.4879    1.1381   51.3483 H       1  ZINC001083519372    0.0600
     36 H36       -11.9542    2.3285   52.5869 H       1  ZINC001083519372    0.0700
     37 H37       -11.7122   -1.4123   52.0827 H       1  ZINC001083519372    0.0900
     38 H38       -10.8272   -2.6148   51.1135 H       1  ZINC001083519372    0.0600
     39 H39       -10.4231   -1.9402   54.9033 H       1  ZINC001083519372    0.1000
     40 H40       -12.0654   -1.5999   54.2678 H       1  ZINC001083519372    0.0600
     41 H41       -13.0739   -2.0625   56.2975 H       1  ZINC001083519372    0.4300
     42 H42       -15.8842   -3.9885   57.4436 H       1  ZINC001083519372    0.1800
     43 H43       -17.3683   -3.0739   59.2126 H       1  ZINC001083519372    0.1900
     44 H44       -14.0586   -0.9232   62.2385 H       1  ZINC001083519372    0.1700
     45 H45       -11.5260   -1.1207   61.4867 H       1  ZINC001083519372    0.2000
     46 H46       -14.5958   -4.5523   53.6990 H       1  ZINC001083519372    0.3900
     47 H47       -12.8012   -3.5728   52.2671 H       1  ZINC001083519372    0.0700
     48 H48       -11.6400   -4.9182   52.4486 H       1  ZINC001083519372    0.0900
     49 H49        -6.4472   -0.7352   51.9774 H       1  ZINC001083519372    0.2500
@<TRIPOS>BOND
     1     1     2    1
     2     1    30    1
     3     1    31    1
     4     1    32    1
     5     2     3    1
     6     2     4    1
     7     2    33    1
     8     3    34    1
     9     3    35    1
    10     3    36    1
    11     4    29    1
    12     4     5    2
    13     5     6    1
    14     5    27    1
    15     6     7    1
    16     6    37    1
    17     6    38    1
    18     7    26    1
    19     7     8    1
    20     8     9    1
    21     8    39    1
    22     8    40    1
    23     9    10    1
    24     9    11    1
    25     9    23    1
    26    11    12   am
    27    11    41    1
    28    12    13    2
    29    12    14    1
    30    14    22    1
    31    14    15    2
    32    15    16    1
    33    15    42    1
    34    16    17    2
    35    16    43    1
    36    17    18    1
    37    18    22    1
    38    18    19    2
    39    19    20    1
    40    19    44    1
    41    20    21    2
    42    20    45    1
    43    21    22    1
    44    23    24    1
    45    23    25    1
    46    23    26    1
    47    25    46    1
    48    26    47    1
    49    26    48    1
    50    27    28    2
    51    28    29    1
    52    28    49    1
@<TRIPOS>SUBSTRUCTURE
     1 ZINC001083519372        1 TEMP              0 ****  ****    0 ROOT


##########                                Name:    ZINC000265786263
##########                DOCK_Rotatable_Bonds:                   7
##########                         Heavy_Atoms:                  28
##########                    Molecular_Weight:             386.451
##########                DOCK_Rotatable_Bonds:                   7
##########                       Formal_Charge:           0.0499992
##########                     HBond_Acceptors:                   8
##########                        HBond_Donors:                   2
##########                         Heavy_Atoms:                  28
##########                          Grid_Score:          -37.591095
##########                     Grid_vdw_energy:          -33.318298
##########                      Grid_es_energy:           -4.272798
##########           Internal_energy_repulsive:           14.975544

@<TRIPOS>MOLECULE
ZINC000265786263
 54 57 1 0 0
SMALL
USER_CHARGES


@<TRIPOS>ATOM
      1 C1        -11.4566   -4.0537   53.3411 C.3     1  ZINC000265786263   -0.1500
      2 C2        -12.3284   -3.5491   54.4928 C.3     1  ZINC000265786263    0.1600
      3 C3        -13.4159   -2.6082   53.9702 C.3     1  ZINC000265786263   -0.1600
      4 C4        -14.8203   -3.1860   53.7840 C.3     1  ZINC000265786263   -0.1600
      5 C5        -14.5373   -2.2194   54.9356 C.3     1  ZINC000265786263   -0.1600
      6 N6        -12.9248   -4.6796   55.2251 N.am    1  ZINC000265786263   -0.7100
      7 C7        -12.4645   -4.6064   56.4871 C.2     1  ZINC000265786263    0.7100
      8 O8        -12.7633   -5.3952   57.3621 O.2     1  ZINC000265786263   -0.5400
      9 N9        -11.6409   -3.5682   56.6712 N.am    1  ZINC000265786263   -0.5600
     10 C10       -10.9932   -3.2474   57.9455 C.3     1  ZINC000265786263    0.1000
     11 C11       -11.9574   -2.4909   58.8225 C.2     1  ZINC000265786263    0.5100
     12 O12       -13.1129   -2.3573   58.4791 O.2     1  ZINC000265786263   -0.5300
     13 N13       -11.5356   -1.9628   59.9886 N.am    1  ZINC000265786263   -0.6100
     14 C14       -10.1369   -2.1063   60.4202 C.3     1  ZINC000265786263    0.1100
     15 C15        -9.5968   -0.7207   60.7895 C.3     1  ZINC000265786263    0.0400
     16 N16       -10.4901   -0.0971   61.7750 N.3     1  ZINC000265786263   -0.5300
     17 C17        -9.9191    1.1571   62.2837 C.3     1  ZINC000265786263    0.0900
     18 C18        -9.7214    1.0511   63.7739 C.ar    1  ZINC000265786263   -0.0600
     19 C19       -10.5333    1.7701   64.6312 C.ar    1  ZINC000265786263   -0.1300
     20 C20       -10.3544    1.6750   65.9992 C.ar    1  ZINC000265786263   -0.1000
     21 C21        -9.3636    0.8609   66.5123 C.ar    1  ZINC000265786263   -0.1400
     22 C22        -8.5474    0.1382   65.6539 C.ar    1  ZINC000265786263    0.1100
     23 O23        -7.5721   -0.6637   66.1564 O.3     1  ZINC000265786263   -0.5000
     24 C24        -8.7324    0.2310   64.2824 C.ar    1  ZINC000265786263   -0.1200
     25 C25       -11.8300    0.1235   61.2151 C.3     1  ZINC000265786263    0.0400
     26 C26       -12.4603   -1.2223   60.8603 C.3     1  ZINC000265786263    0.1200
     27 C27       -11.4799   -2.8545   55.5394 C.2     1  ZINC000265786263    0.5400
     28 O28       -10.7978   -1.8636   55.3893 O.2     1  ZINC000265786263   -0.4500
     29 H29       -10.7127   -4.7508   53.7270 H       1  ZINC000265786263    0.0700
     30 H30       -12.0825   -4.5600   52.6065 H       1  ZINC000265786263    0.0800
     31 H31       -10.9533   -3.2096   52.8696 H       1  ZINC000265786263    0.0900
     32 H32       -13.0824   -1.8548   53.2566 H       1  ZINC000265786263    0.1100
     33 H33       -15.4111   -2.8128   52.9474 H       1  ZINC000265786263    0.1000
     34 H34       -14.9696   -4.2364   54.0336 H       1  ZINC000265786263    0.1100
     35 H35       -14.5005   -2.6339   55.9431 H       1  ZINC000265786263    0.1000
     36 H36       -14.9420   -1.2103   54.8568 H       1  ZINC000265786263    0.1000
     37 H37       -13.5316   -5.3464   54.8673 H       1  ZINC000265786263    0.4400
     38 H38       -10.6956   -4.1699   58.4441 H       1  ZINC000265786263    0.1300
     39 H39       -10.1118   -2.6335   57.7607 H       1  ZINC000265786263    0.1300
     40 H40       -10.0875   -2.7622   61.2894 H       1  ZINC000265786263    0.0900
     41 H41        -9.5441   -2.5258   59.6073 H       1  ZINC000265786263    0.0900
     42 H42        -8.5986   -0.8212   61.2157 H       1  ZINC000265786263    0.0900
     43 H43        -9.5502   -0.0984   59.8958 H       1  ZINC000265786263    0.0400
     44 H44        -8.9587    1.3408   61.8019 H       1  ZINC000265786263    0.0900
     45 H45       -10.5987    1.9808   62.0650 H       1  ZINC000265786263    0.0500
     46 H46       -11.3084    2.4074   64.2319 H       1  ZINC000265786263    0.1200
     47 H47       -10.9899    2.2379   66.6668 H       1  ZINC000265786263    0.1300
     48 H48        -9.2242    0.7872   67.5807 H       1  ZINC000265786263    0.1300
     49 H49        -7.0257   -1.0889   65.4812 H       1  ZINC000265786263    0.3900
     50 H50        -8.0984   -0.3305   63.6123 H       1  ZINC000265786263    0.1300
     51 H51       -12.4516    0.6353   61.9498 H       1  ZINC000265786263    0.1000
     52 H52       -11.7523    0.7340   60.3155 H       1  ZINC000265786263    0.0400
     53 H53       -13.4044   -1.0589   60.3404 H       1  ZINC000265786263    0.1000
     54 H54       -12.6349   -1.7962   61.7704 H       1  ZINC000265786263    0.0800
@<TRIPOS>BOND
     1     1     2    1
     2     1    29    1
     3     1    30    1
     4     1    31    1
     5     2    27    1
     6     2     3    1
     7     2     6    1
     8     3     5    1
     9     3     4    1
    10     3    32    1
    11     4     5    1
    12     4    33    1
    13     4    34    1
    14     5    35    1
    15     5    36    1
    16     6     7   am
    17     6    37    1
    18     7     8    2
    19     7     9   am
    20     9    10    1
    21     9    27   am
    22    10    11    1
    23    10    38    1
    24    10    39    1
    25    11    12    2
    26    11    13   am
    27    13    26    1
    28    13    14    1
    29    14    15    1
    30    14    40    1
    31    14    41    1
    32    15    16    1
    33    15    42    1
    34    15    43    1
    35    16    17    1
    36    16    25    1
    37    17    18    1
    38    17    44    1
    39    17    45    1
    40    18    24   ar
    41    18    19   ar
    42    19    20   ar
    43    19    46    1
    44    20    21   ar
    45    20    47    1
    46    21    22   ar
    47    21    48    1
    48    22    23    1
    49    22    24   ar
    50    23    49    1
    51    24    50    1
    52    25    26    1
    53    25    51    1
    54    25    52    1
    55    26    53    1
    56    26    54    1
    57    27    28    2
@<TRIPOS>SUBSTRUCTURE
     1 ZINC000265786263        1 TEMP              0 ****  ****    0 ROOT


##########                                Name:    ZINC000442010511
##########                DOCK_Rotatable_Bonds:                  11
##########                         Heavy_Atoms:                  31
##########                    Molecular_Weight:             422.481
##########                DOCK_Rotatable_Bonds:                  11
##########                       Formal_Charge:          -0.0200005
##########                     HBond_Acceptors:                   7
##########                        HBond_Donors:                   2
##########                         Heavy_Atoms:                  31
##########                          Grid_Score:          -37.552090
##########                     Grid_vdw_energy:          -37.520973
##########                      Grid_es_energy:           -0.031117
##########           Internal_energy_repulsive:           11.829764

@<TRIPOS>MOLECULE
ZINC000442010511
 57 59 1 0 0
SMALL
USER_CHARGES


@<TRIPOS>ATOM
      1 C1         -4.7877    2.4086   51.4901 C.3     1  ZINC000442010511   -0.1500
      2 C2         -5.4251    1.1802   50.8378 C.3     1  ZINC000442010511   -0.0500
      3 C3         -6.7107    0.8441   51.5487 C.2     1  ZINC000442010511    0.0000
      4 C4         -7.2464   -0.3840   51.6668 C.2     1  ZINC000442010511   -0.2100
      5 C5         -8.4442   -0.2392   52.4039 C.2     1  ZINC000442010511   -0.1900
      6 C6         -8.5687    1.0687   52.6921 C.2     1  ZINC000442010511   -0.0300
      7 C7         -9.6977    1.6965   53.4682 C.3     1  ZINC000442010511    0.2400
      8 H8         -9.6121    2.7820   53.4200 H       1  ZINC000442010511    0.1400
      9 C9        -11.0349    1.2630   52.8641 C.3     1  ZINC000442010511    0.0500
     10 O10       -11.1022    1.6882   51.5015 O.3     1  ZINC000442010511   -0.3800
     11 C11       -11.0740    3.1070   51.3332 C.3     1  ZINC000442010511    0.0300
     12 N12        -9.6299    1.2629   54.8660 N.am    1  ZINC000442010511   -0.6900
     13 C13        -8.5952    1.6446   55.6406 C.2     1  ZINC000442010511    0.5200
     14 O14        -7.7188    2.3464   55.1798 O.2     1  ZINC000442010511   -0.5100
     15 C15        -8.5270    1.2041   57.0658 C.2     1  ZINC000442010511    0.5100
     16 O16        -7.5006    1.3491   57.6974 O.2     1  ZINC000442010511   -0.5000
     17 N17        -9.6050    0.6457   57.6509 N.am    1  ZINC000442010511   -0.6300
     18 C18        -9.5412    0.2331   58.9857 C.ar    1  ZINC000442010511    0.1200
     19 C19        -9.8396    1.1261   60.0049 C.ar    1  ZINC000442010511   -0.1000
     20 C20        -9.7757    0.7159   61.3232 C.ar    1  ZINC000442010511   -0.1300
     21 C21        -9.4150   -0.5831   61.6303 C.ar    1  ZINC000442010511   -0.0900
     22 C22        -9.1156   -1.4789   60.6205 C.ar    1  ZINC000442010511   -0.1700
     23 C23        -9.1831   -1.0782   59.2960 C.ar    1  ZINC000442010511    0.1000
     24 O24        -8.8891   -1.9577   58.3021 O.3     1  ZINC000442010511   -0.2600
     25 C25        -9.8554   -2.8321   57.9175 C.ar    1  ZINC000442010511    0.0800
     26 C26        -9.8713   -4.1208   58.4319 C.ar    1  ZINC000442010511   -0.1300
     27 C27       -10.8550   -5.0077   58.0395 C.ar    1  ZINC000442010511   -0.1100
     28 C28       -11.8229   -4.6124   57.1346 C.ar    1  ZINC000442010511   -0.0800
     29 C29       -12.8945   -5.5823   56.7080 C.3     1  ZINC000442010511   -0.1200
     30 C30       -11.8096   -3.3288   56.6208 C.ar    1  ZINC000442010511   -0.1100
     31 C31       -10.8312   -2.4363   57.0138 C.ar    1  ZINC000442010511   -0.1100
     32 O32        -7.5130    1.7193   52.1765 O.3     1  ZINC000442010511   -0.1600
     33 H33        -5.4728    3.2535   51.4206 H       1  ZINC000442010511    0.0600
     34 H34        -4.5784    2.1959   52.5384 H       1  ZINC000442010511    0.0600
     35 H35        -3.8578    2.6516   50.9760 H       1  ZINC000442010511    0.0700
     36 H36        -5.6344    1.3929   49.7895 H       1  ZINC000442010511    0.0900
     37 H37        -4.7400    0.3352   50.9072 H       1  ZINC000442010511    0.0800
     38 H38        -6.8400   -1.3041   51.2736 H       1  ZINC000442010511    0.1500
     39 H39        -9.1281   -1.0275   52.6819 H       1  ZINC000442010511    0.1500
     40 H40       -11.1197    0.1773   52.9106 H       1  ZINC000442010511    0.0700
     41 H41       -11.8515    1.7157   53.4267 H       1  ZINC000442010511    0.0700
     42 H42       -11.1288    3.3481   50.2716 H       1  ZINC000442010511    0.0900
     43 H43       -11.9239    3.5512   51.8512 H       1  ZINC000442010511    0.0400
     44 H44       -10.1476    3.5037   51.7485 H       1  ZINC000442010511    0.0400
     45 H45       -10.3298    0.7009   55.2339 H       1  ZINC000442010511    0.4200
     46 H46       -10.4252    0.5299   57.1462 H       1  ZINC000442010511    0.4300
     47 H47       -10.1214    2.1415   59.7683 H       1  ZINC000442010511    0.1600
     48 H48       -10.0079    1.4120   62.1157 H       1  ZINC000442010511    0.1300
     49 H49        -9.3665   -0.8987   62.6619 H       1  ZINC000442010511    0.1300
     50 H50        -8.8335   -2.4925   60.8641 H       1  ZINC000442010511    0.1300
     51 H51        -9.1151   -4.4302   59.1382 H       1  ZINC000442010511    0.1300
     52 H52       -10.8679   -6.0108   58.4396 H       1  ZINC000442010511    0.1300
     53 H53       -13.7484   -5.4992   57.3804 H       1  ZINC000442010511    0.0700
     54 H54       -13.2097   -5.3512   55.6904 H       1  ZINC000442010511    0.0700
     55 H55       -12.5008   -6.5981   56.7445 H       1  ZINC000442010511    0.0700
     56 H56       -12.5668   -3.0227   55.9141 H       1  ZINC000442010511    0.1300
     57 H57       -10.8214   -1.4338   56.6124 H       1  ZINC000442010511    0.1300
@<TRIPOS>BOND
     1     1     2    1
     2     1    33    1
     3     1    34    1
     4     1    35    1
     5     2     3    1
     6     2    36    1
     7     2    37    1
     8     3    32    1
     9     3     4    2
    10     4     5    1
    11     4    38    1
    12     5     6    2
    13     5    39    1
    14     6     7    1
    15     6    32    1
    16     7     8    1
    17     7     9    1
    18     7    12    1
    19     9    10    1
    20     9    40    1
    21     9    41    1
    22    10    11    1
    23    11    42    1
    24    11    43    1
    25    11    44    1
    26    12    13   am
    27    12    45    1
    28    13    14    2
    29    13    15    1
    30    15    16    2
    31    15    17   am
    32    17    18    1
    33    17    46    1
    34    18    23   ar
    35    18    19   ar
    36    19    20   ar
    37    19    47    1
    38    20    21   ar
    39    20    48    1
    40    21    22   ar
    41    21    49    1
    42    22    23   ar
    43    22    50    1
    44    23    24    1
    45    24    25    1
    46    25    31   ar
    47    25    26   ar
    48    26    27   ar
    49    26    51    1
    50    27    28   ar
    51    27    52    1
    52    28    29    1
    53    28    30   ar
    54    29    53    1
    55    29    54    1
    56    29    55    1
    57    30    31   ar
    58    30    56    1
    59    31    57    1
@<TRIPOS>SUBSTRUCTURE
     1 ZINC000442010511        1 TEMP              0 ****  ****    0 ROOT


##########                                Name:    ZINC000013809319
##########                DOCK_Rotatable_Bonds:                  10
##########                         Heavy_Atoms:                  30
##########                    Molecular_Weight:             407.469
##########                DOCK_Rotatable_Bonds:                  10
##########                       Formal_Charge:         -0.00999978
##########                     HBond_Acceptors:                   7
##########                        HBond_Donors:                   1
##########                         Heavy_Atoms:                  30
##########                          Grid_Score:          -37.458626
##########                     Grid_vdw_energy:          -36.842564
##########                      Grid_es_energy:           -0.616062
##########           Internal_energy_repulsive:           18.425848

@<TRIPOS>MOLECULE
ZINC000013809319
 55 57 1 0 0
SMALL
USER_CHARGES


@<TRIPOS>ATOM
      1 C1         -8.3593    0.5573   66.2074 C.3     1  ZINC000013809319   -0.1500
      2 C2         -8.4707    0.6416   64.6837 C.3     1  ZINC000013809319    0.0500
      3 O3         -9.6824    1.3119   64.3311 O.3     1  ZINC000013809319   -0.3100
      4 C4        -10.4989    0.6845   63.4459 C.ar    1  ZINC000013809319    0.1500
      5 C5        -10.0257    0.3507   62.1830 C.ar    1  ZINC000013809319   -0.2200
      6 C6        -10.8513   -0.2864   61.2825 C.ar    1  ZINC000013809319   -0.0300
      7 C7        -12.1643   -0.5966   61.6403 C.ar    1  ZINC000013809319   -0.1100
      8 C8        -13.0539   -1.2814   60.6758 C.2     1  ZINC000013809319    0.2300
      9 C9        -13.9289   -2.2641   61.1097 C.2     1  ZINC000013809319   -0.2900
     10 C10       -14.7563   -2.8886   60.1602 C.2     1  ZINC000013809319    0.5300
     11 O11       -15.5425   -3.7590   60.4969 O.2     1  ZINC000013809319   -0.5400
     12 N12       -14.6645   -2.5066   58.8692 N.am    1  ZINC000013809319   -0.5100
     13 C13       -15.5153   -3.1406   57.8592 C.3     1  ZINC000013809319    0.0700
     14 C14       -14.7403   -4.2277   57.1602 C.2     1  ZINC000013809319    0.5000
     15 O15       -14.5901   -5.3056   57.6956 O.2     1  ZINC000013809319   -0.5200
     16 N16       -14.2140   -4.0021   55.9401 N.am    1  ZINC000013809319   -0.7200
     17 C17       -13.4620   -5.0595   55.2598 C.3     1  ZINC000013809319    0.1300
     18 C18       -12.6313   -4.4482   54.1296 C.3     1  ZINC000013809319   -0.0800
     19 C19       -12.0898   -3.1127   54.5702 C.ar    1  ZINC000013809319   -0.1200
     20 C20       -12.3732   -1.9762   53.8381 C.ar    1  ZINC000013809319   -0.0800
     21 C21       -11.8759   -0.7505   54.2417 C.ar    1  ZINC000013809319   -0.1500
     22 C22       -11.0947   -0.6592   55.3785 C.ar    1  ZINC000013809319   -0.0800
     23 C23       -10.8086   -1.7929   56.1146 C.ar    1  ZINC000013809319   -0.2100
     24 C24       -11.3105   -3.0228   55.7148 C.ar    1  ZINC000013809319    0.1300
     25 O25       -11.0306   -4.1394   56.4370 O.3     1  ZINC000013809319   -0.3100
     26 C26       -10.2024   -3.9756   57.5900 C.3     1  ZINC000013809319    0.0300
     27 C27       -13.7938   -1.5439   58.5045 C.2     1  ZINC000013809319    0.3900
     28 N28       -13.0228   -0.9507   59.3730 N.2     1  ZINC000013809319   -0.5300
     29 C29       -12.6363   -0.2599   62.9100 C.ar    1  ZINC000013809319   -0.0500
     30 C30       -11.8035    0.3724   63.8074 C.ar    1  ZINC000013809319   -0.1600
     31 H31        -8.3536    1.5630   66.6275 H       1  ZINC000013809319    0.0700
     32 H32        -9.2098    0.0027   66.6036 H       1  ZINC000013809319    0.0700
     33 H33        -7.4350    0.0459   66.4763 H       1  ZINC000013809319    0.0800
     34 H34        -7.6200    1.1962   64.2875 H       1  ZINC000013809319    0.0600
     35 H35        -8.4763   -0.3641   64.2636 H       1  ZINC000013809319    0.0600
     36 H36        -9.0097    0.5914   61.9067 H       1  ZINC000013809319    0.1300
     37 H37       -10.4830   -0.5452   60.3007 H       1  ZINC000013809319    0.1400
     38 H38       -13.9740   -2.5438   62.1519 H       1  ZINC000013809319    0.1600
     39 H39       -16.3921   -3.5724   58.3418 H       1  ZINC000013809319    0.1300
     40 H40       -15.8321   -2.3944   57.1306 H       1  ZINC000013809319    0.1300
     41 H41       -14.3331   -3.1396   55.5124 H       1  ZINC000013809319    0.4000
     42 H42       -12.7998   -5.5506   55.9727 H       1  ZINC000013809319    0.0700
     43 H43       -14.1566   -5.7904   54.8457 H       1  ZINC000013809319    0.0700
     44 H44       -11.8032   -5.1137   53.8863 H       1  ZINC000013809319    0.0800
     45 H45       -13.2595   -4.3129   53.2492 H       1  ZINC000013809319    0.0800
     46 H46       -12.9832   -2.0450   52.9496 H       1  ZINC000013809319    0.1300
     47 H47       -12.0981    0.1369   53.6674 H       1  ZINC000013809319    0.1300
     48 H48       -10.7073    0.2992   55.6914 H       1  ZINC000013809319    0.1300
     49 H49       -10.1980   -1.7211   57.0024 H       1  ZINC000013809319    0.1300
     50 H50       -10.6818   -3.2885   58.2872 H       1  ZINC000013809319    0.0600
     51 H51       -10.0577   -4.9417   58.0736 H       1  ZINC000013809319    0.1000
     52 H52        -9.2359   -3.5719   57.2886 H       1  ZINC000013809319    0.0600
     53 H53       -13.7363   -1.2535   57.4659 H       1  ZINC000013809319    0.2000
     54 H54       -13.6516   -0.4985   63.1901 H       1  ZINC000013809319    0.1400
     55 H55       -12.1679    0.6330   64.7901 H       1  ZINC000013809319    0.1400
@<TRIPOS>BOND
     1     1     2    1
     2     1    31    1
     3     1    32    1
     4     1    33    1
     5     2     3    1
     6     2    34    1
     7     2    35    1
     8     3     4    1
     9     4    30   ar
    10     4     5   ar
    11     5     6   ar
    12     5    36    1
    13     6     7   ar
    14     6    37    1
    15     7     8    1
    16     7    29   ar
    17     8    28    1
    18     8     9    2
    19     9    10    1
    20     9    38    1
    21    10    11    2
    22    10    12   am
    23    12    13    1
    24    12    27    1
    25    13    14    1
    26    13    39    1
    27    13    40    1
    28    14    15    2
    29    14    16   am
    30    16    17    1
    31    16    41    1
    32    17    18    1
    33    17    42    1
    34    17    43    1
    35    18    19    1
    36    18    44    1
    37    18    45    1
    38    19    24   ar
    39    19    20   ar
    40    20    21   ar
    41    20    46    1
    42    21    22   ar
    43    21    47    1
    44    22    23   ar
    45    22    48    1
    46    23    24   ar
    47    23    49    1
    48    24    25    1
    49    25    26    1
    50    26    50    1
    51    26    51    1
    52    26    52    1
    53    27    28    2
    54    27    53    1
    55    29    30   ar
    56    29    54    1
    57    30    55    1
@<TRIPOS>SUBSTRUCTURE
     1 ZINC000013809319        1 TEMP              0 ****  ****    0 ROOT


##########                                Name:    ZINC000623695407
##########                DOCK_Rotatable_Bonds:                  10
##########                         Heavy_Atoms:                  27
##########                    Molecular_Weight:             368.479
##########                DOCK_Rotatable_Bonds:                  10
##########                       Formal_Charge:           0.0299989
##########                     HBond_Acceptors:                   6
##########                        HBond_Donors:                   2
##########                         Heavy_Atoms:                  27
##########                          Grid_Score:          -37.419506
##########                     Grid_vdw_energy:          -36.729538
##########                      Grid_es_energy:           -0.689969
##########           Internal_energy_repulsive:           15.898618

@<TRIPOS>MOLECULE
ZINC000623695407
 55 57 1 0 0
SMALL
USER_CHARGES


@<TRIPOS>ATOM
      1 C1         -9.1567   -2.8679   60.6552 C.3     1  ZINC000623695407    0.0300
      2 O2         -8.6691   -2.7577   59.3164 O.3     1  ZINC000623695407   -0.3200
      3 C3         -9.5877   -2.5236   58.3426 C.ar    1  ZINC000623695407    0.1300
      4 C4        -10.1618   -3.5856   57.6592 C.ar    1  ZINC000623695407   -0.2100
      5 C5        -11.0957   -3.3451   56.6700 C.ar    1  ZINC000623695407   -0.0600
      6 C6        -11.4580   -2.0470   56.3607 C.ar    1  ZINC000623695407   -0.1100
      7 C7        -12.4766   -1.7874   55.2808 C.3     1  ZINC000623695407    0.0600
      8 N8        -12.1563   -2.6006   54.1000 N.3     1  ZINC000623695407   -0.4600
      9 C9        -13.3703   -2.8943   53.3157 C.3     1  ZINC000623695407    0.0000
     10 C10       -12.5458   -2.6353   52.0469 C.3     1  ZINC000623695407   -0.1300
     11 C11       -11.7060   -1.7525   52.9806 C.3     1  ZINC000623695407    0.0100
     12 H12       -12.0630   -0.7245   53.0436 H       1  ZINC000623695407    0.0900
     13 C13       -10.2020   -1.8412   52.7138 C.3     1  ZINC000623695407    0.1600
     14 N14        -9.6152   -0.5002   52.7754 N.am    1  ZINC000623695407   -0.7400
     15 C15        -8.3999   -0.2713   52.2396 C.2     1  ZINC000623695407    0.7100
     16 O16        -7.7899   -1.1779   51.7065 O.2     1  ZINC000623695407   -0.5900
     17 N17        -7.8608    0.9627   52.2949 N.am    1  ZINC000623695407   -0.7400
     18 C18        -6.5389    1.2111   51.7141 C.3     1  ZINC000623695407    0.1700
     19 H19        -5.8959    0.3493   51.8923 H       1  ZINC000623695407    0.0900
     20 C20        -6.6786    1.4405   50.2078 C.3     1  ZINC000623695407   -0.1600
     21 C21        -5.9214    2.4511   52.3638 C.3     1  ZINC000623695407   -0.0900
     22 C22        -4.5694    2.7173   51.7537 C.ar    1  ZINC000623695407   -0.0300
     23 C23        -3.7948    1.6772   51.2633 C.ar    1  ZINC000623695407   -0.1700
     24 C24        -2.5600    1.9597   50.7107 C.ar    1  ZINC000623695407    0.1000
     25 N25        -2.1170    3.2001   50.6477 N.ar    1  ZINC000623695407   -0.4900
     26 C26        -2.8263    4.2138   51.1040 C.ar    1  ZINC000623695407    0.1000
     27 C27        -4.0729    4.0089   51.6643 C.ar    1  ZINC000623695407   -0.1700
     28 C28       -10.8875   -0.9869   57.0407 C.ar    1  ZINC000623695407   -0.0700
     29 C29        -9.9571   -1.2224   58.0342 C.ar    1  ZINC000623695407   -0.1500
     30 H30        -8.3225   -3.0542   61.3316 H       1  ZINC000623695407    0.1000
     31 H31        -9.6538   -1.9400   60.9384 H       1  ZINC000623695407    0.0600
     32 H32        -9.8658   -3.6934   60.7168 H       1  ZINC000623695407    0.0600
     33 H33        -9.8786   -4.5996   57.9000 H       1  ZINC000623695407    0.1300
     34 H34       -11.5429   -4.1715   56.1377 H       1  ZINC000623695407    0.1200
     35 H35       -13.4688   -2.0520   55.6460 H       1  ZINC000623695407    0.0600
     36 H36       -12.4585   -0.7316   55.0105 H       1  ZINC000623695407    0.0700
     37 H37       -13.7092   -3.9260   53.4102 H       1  ZINC000623695407    0.0900
     38 H38       -14.1714   -2.1711   53.4682 H       1  ZINC000623695407    0.0700
     39 H39       -12.0201   -3.5125   51.6695 H       1  ZINC000623695407    0.1000
     40 H40       -13.0798   -2.0846   51.2724 H       1  ZINC000623695407    0.0800
     41 H41        -9.7363   -2.4766   53.4671 H       1  ZINC000623695407    0.0700
     42 H42       -10.0331   -2.2667   51.7246 H       1  ZINC000623695407    0.0700
     43 H43       -10.1014    0.2228   53.2017 H       1  ZINC000623695407    0.3900
     44 H44        -8.3480    1.6863   52.7191 H       1  ZINC000623695407    0.3900
     45 H45        -5.6951    1.6254   49.7758 H       1  ZINC000623695407    0.0700
     46 H46        -7.1185    0.5572   49.7451 H       1  ZINC000623695407    0.0700
     47 H47        -7.3216    2.3025   50.0297 H       1  ZINC000623695407    0.0600
     48 H48        -6.5709    3.3104   52.1968 H       1  ZINC000623695407    0.1000
     49 H49        -5.8099    2.2827   53.4349 H       1  ZINC000623695407    0.0800
     50 H50        -4.1518    0.6591   51.3128 H       1  ZINC000623695407    0.1300
     51 H51        -1.9504    1.1551   50.3264 H       1  ZINC000623695407    0.1500
     52 H52        -2.4302    5.2162   51.0353 H       1  ZINC000623695407    0.1600
     53 H53        -4.6493    4.8431   52.0360 H       1  ZINC000623695407    0.1400
     54 H54       -11.1725    0.0261   56.7974 H       1  ZINC000623695407    0.1200
     55 H55        -9.5119   -0.3940   58.5651 H       1  ZINC000623695407    0.1300
@<TRIPOS>BOND
     1     1     2    1
     2     1    30    1
     3     1    31    1
     4     1    32    1
     5     2     3    1
     6     3    29   ar
     7     3     4   ar
     8     4     5   ar
     9     4    33    1
    10     5     6   ar
    11     5    34    1
    12     6     7    1
    13     6    28   ar
    14     7     8    1
    15     7    35    1
    16     7    36    1
    17     8    11    1
    18     8     9    1
    19     9    10    1
    20     9    37    1
    21     9    38    1
    22    10    11    1
    23    10    39    1
    24    10    40    1
    25    11    12    1
    26    11    13    1
    27    13    14    1
    28    13    41    1
    29    13    42    1
    30    14    15   am
    31    14    43    1
    32    15    16    2
    33    15    17   am
    34    17    18    1
    35    17    44    1
    36    18    19    1
    37    18    20    1
    38    18    21    1
    39    20    45    1
    40    20    46    1
    41    20    47    1
    42    21    22    1
    43    21    48    1
    44    21    49    1
    45    22    27   ar
    46    22    23   ar
    47    23    24   ar
    48    23    50    1
    49    24    25   ar
    50    24    51    1
    51    25    26   ar
    52    26    27   ar
    53    26    52    1
    54    27    53    1
    55    28    29   ar
    56    28    54    1
    57    29    55    1
@<TRIPOS>SUBSTRUCTURE
     1 ZINC000623695407        1 TEMP              0 ****  ****    0 ROOT


##########                                Name:    ZINC000864730443
##########                DOCK_Rotatable_Bonds:                  10
##########                         Heavy_Atoms:                  25
##########                    Molecular_Weight:             356.462
##########                DOCK_Rotatable_Bonds:                  10
##########                       Formal_Charge:           0.0299988
##########                     HBond_Acceptors:                   7
##########                        HBond_Donors:                   2
##########                         Heavy_Atoms:                  25
##########                          Grid_Score:          -37.402016
##########                     Grid_vdw_energy:          -36.638840
##########                      Grid_es_energy:           -0.763176
##########           Internal_energy_repulsive:           25.276999

@<TRIPOS>MOLECULE
ZINC000864730443
 57 58 1 0 0
SMALL
USER_CHARGES


@<TRIPOS>ATOM
      1 C1        -14.0033   -1.0096   50.5485 C.3     1  ZINC000864730443   -0.1800
      2 C2        -13.5840   -1.4865   51.9405 C.3     1  ZINC000864730443    0.1400
      3 C3        -12.8536   -0.3562   52.6683 C.3     1  ZINC000864730443   -0.1800
      4 C4        -14.8266   -1.8874   52.7380 C.3     1  ZINC000864730443   -0.1400
      5 O5        -12.6999   -2.6313   51.8138 O.3     1  ZINC000864730443   -0.3600
      6 C6        -11.8129   -2.8316   52.8068 C.2     1  ZINC000864730443    0.6500
      7 O7        -10.6270   -2.6587   52.6059 O.2     1  ZINC000864730443   -0.5700
      8 N8        -12.2403   -3.2236   54.0233 N.am    1  ZINC000864730443   -0.7100
      9 C9        -11.2753   -3.4398   55.1042 C.3     1  ZINC000864730443    0.1500
     10 C10       -12.0215   -3.8107   56.3873 C.3     1  ZINC000864730443   -0.1300
     11 C11       -11.0436   -4.3440   57.4023 C.2     1  ZINC000864730443    0.5300
     12 O12       -10.9987   -5.5336   57.6344 O.2     1  ZINC000864730443   -0.5300
     13 N13       -10.2190   -3.4990   58.0524 N.am    1  ZINC000864730443   -0.7200
     14 C14        -9.2684   -4.0175   59.0391 C.3     1  ZINC000864730443    0.1200
     15 C15        -9.2372   -3.0885   60.2544 C.3     1  ZINC000864730443   -0.1300
     16 C16        -9.8557   -1.7398   59.8814 C.3     1  ZINC000864730443    0.0800
     17 H17       -10.8962   -1.8707   59.5839 H       1  ZINC000864730443    0.0800
     18 C18        -9.7571   -0.7547   61.0733 C.3     1  ZINC000864730443   -0.1500
     19 C19        -9.8037    0.6097   60.3328 C.3     1  ZINC000864730443   -0.1600
     20 C20        -9.0577    0.2947   59.0183 C.3     1  ZINC000864730443    0.0500
     21 O21        -9.1077   -1.1244   58.8206 O.3     1  ZINC000864730443   -0.3800
     22 C22       -12.7199   -2.5692   56.9505 C.3     1  ZINC000864730443   -0.1000
     23 C23       -13.5264   -2.9686   58.1900 C.3     1  ZINC000864730443   -0.1600
     24 C24       -14.5183   -4.0712   57.8103 C.3     1  ZINC000864730443    0.0600
     25 O25       -13.8062   -5.1837   57.2651 O.3     1  ZINC000864730443   -0.3700
     26 C26       -13.0715   -4.8808   56.0773 C.3     1  ZINC000864730443    0.0800
     27 H27       -13.1181   -0.7238   49.9803 H       1  ZINC000864730443    0.0900
     28 H28       -14.5237   -1.8148   50.0299 H       1  ZINC000864730443    0.0600
     29 H29       -14.6669   -0.1501   50.6436 H       1  ZINC000864730443    0.0700
     30 H30       -13.5173    0.5032   52.7634 H       1  ZINC000864730443    0.0700
     31 H31       -12.5549   -0.6960   53.6600 H       1  ZINC000864730443    0.0600
     32 H32       -11.9683   -0.0706   52.1001 H       1  ZINC000864730443    0.0900
     33 H33       -15.3470   -2.6927   52.2194 H       1  ZINC000864730443    0.0700
     34 H34       -14.5278   -2.2272   53.7297 H       1  ZINC000864730443    0.0700
     35 H35       -15.4902   -1.0280   52.8331 H       1  ZINC000864730443    0.0800
     36 H36       -13.1869   -3.3628   54.1832 H       1  ZINC000864730443    0.4100
     37 H37       -10.5985   -4.2492   54.8305 H       1  ZINC000864730443    0.0900
     38 H38       -10.7027   -2.5269   55.2678 H       1  ZINC000864730443    0.0800
     39 H39       -10.2549   -2.5476   57.8668 H       1  ZINC000864730443    0.4000
     40 H40        -9.5773   -5.0149   59.3521 H       1  ZINC000864730443    0.0700
     41 H41        -8.2744   -4.0678   58.5946 H       1  ZINC000864730443    0.0700
     42 H42        -9.8064   -3.5365   61.0689 H       1  ZINC000864730443    0.0800
     43 H43        -8.2050   -2.9396   60.5715 H       1  ZINC000864730443    0.0800
     44 H44       -10.6073   -0.8658   61.7462 H       1  ZINC000864730443    0.0900
     45 H45        -8.8158   -0.8790   61.6088 H       1  ZINC000864730443    0.0800
     46 H46       -10.8329    0.9076   60.1330 H       1  ZINC000864730443    0.0800
     47 H47        -9.2798    1.3779   60.9016 H       1  ZINC000864730443    0.0800
     48 H48        -9.5467    0.8001   58.1855 H       1  ZINC000864730443    0.0700
     49 H49        -8.0209    0.6223   59.0940 H       1  ZINC000864730443    0.0700
     50 H50       -11.9733   -1.8242   57.2256 H       1  ZINC000864730443    0.0800
     51 H51       -13.3901   -2.1547   56.1973 H       1  ZINC000864730443    0.0800
     52 H52       -12.8501   -3.3368   58.9614 H       1  ZINC000864730443    0.0900
     53 H53       -14.0709   -2.1020   58.5651 H       1  ZINC000864730443    0.0800
     54 H54       -15.0653   -4.3893   58.6978 H       1  ZINC000864730443    0.1000
     55 H55       -15.2195   -3.6895   57.0683 H       1  ZINC000864730443    0.0500
     56 H56       -13.7540   -4.5096   55.3126 H       1  ZINC000864730443    0.0700
     57 H57       -12.5764   -5.7822   55.7163 H       1  ZINC000864730443    0.1000
@<TRIPOS>BOND
     1     1     2    1
     2     1    27    1
     3     1    28    1
     4     1    29    1
     5     2     3    1
     6     2     4    1
     7     2     5    1
     8     3    30    1
     9     3    31    1
    10     3    32    1
    11     4    33    1
    12     4    34    1
    13     4    35    1
    14     5     6    1
    15     6     7    2
    16     6     8   am
    17     8     9    1
    18     8    36    1
    19     9    10    1
    20     9    37    1
    21     9    38    1
    22    10    26    1
    23    10    11    1
    24    10    22    1
    25    11    12    2
    26    11    13   am
    27    13    14    1
    28    13    39    1
    29    14    15    1
    30    14    40    1
    31    14    41    1
    32    15    16    1
    33    15    42    1
    34    15    43    1
    35    16    17    1
    36    16    21    1
    37    16    18    1
    38    18    19    1
    39    18    44    1
    40    18    45    1
    41    19    20    1
    42    19    46    1
    43    19    47    1
    44    20    21    1
    45    20    48    1
    46    20    49    1
    47    22    23    1
    48    22    50    1
    49    22    51    1
    50    23    24    1
    51    23    52    1
    52    23    53    1
    53    24    25    1
    54    24    54    1
    55    24    55    1
    56    25    26    1
    57    26    56    1
    58    26    57    1
@<TRIPOS>SUBSTRUCTURE
     1 ZINC000864730443        1 TEMP              0 ****  ****    0 ROOT


##########                                Name:    ZINC000434204837
##########                DOCK_Rotatable_Bonds:                   7
##########                         Heavy_Atoms:                  29
##########                    Molecular_Weight:             406.511
##########                DOCK_Rotatable_Bonds:                   7
##########                       Formal_Charge:          -0.0200002
##########                     HBond_Acceptors:                   8
##########                        HBond_Donors:                   0
##########                         Heavy_Atoms:                  29
##########                          Grid_Score:          -37.385952
##########                     Grid_vdw_energy:          -36.722450
##########                      Grid_es_energy:           -0.663502
##########           Internal_energy_repulsive:           15.159975

@<TRIPOS>MOLECULE
ZINC000434204837
 51 54 1 0 0
SMALL
USER_CHARGES


@<TRIPOS>ATOM
      1 C1        -12.5634    2.3042   49.5422 C.3     1  ZINC000434204837   -0.1300
      2 C2        -13.2108    0.9683   49.2825 C.ar    1  ZINC000434204837   -0.0700
      3 C3        -13.7726    0.7009   48.0484 C.ar    1  ZINC000434204837   -0.1200
      4 C4        -14.3665   -0.5248   47.8102 C.ar    1  ZINC000434204837   -0.1100
      5 C5        -14.3981   -1.4826   48.8060 C.ar    1  ZINC000434204837   -0.1300
      6 C6        -13.8352   -1.2155   50.0403 C.ar    1  ZINC000434204837   -0.0900
      7 C7        -13.2377    0.0082   50.2770 C.ar    1  ZINC000434204837   -0.1000
      8 C8        -12.6243    0.2994   51.6223 C.3     1  ZINC000434204837    0.0100
      9 C9        -12.0552   -0.9705   52.2006 C.2     1  ZINC000434204837    0.2000
     10 N10       -12.0556   -1.3222   53.4638 N.2     1  ZINC000434204837   -0.4600
     11 C11       -11.4465   -2.5206   53.5063 C.2     1  ZINC000434204837    0.1700
     12 C12       -11.1970   -3.3512   54.7386 C.3     1  ZINC000434204837   -0.0300
     13 S13       -11.1305   -2.2720   56.1902 S.3     1  ZINC000434204837    0.0900
     14 C14       -10.5540   -3.4185   57.3977 C.2     1  ZINC000434204837    0.2100
     15 N15       -10.3575   -4.7075   57.2215 N.2     1  ZINC000434204837   -0.3300
     16 N16        -9.9333   -5.2503   58.3051 N.2     1  ZINC000434204837   -0.0200
     17 N17        -9.8283   -4.3677   59.2387 N.2     1  ZINC000434204837   -0.0700
     18 N18       -10.2233   -3.1380   58.6834 N.pl3   1  ZINC000434204837   -0.3100
     19 C19       -10.2726   -1.8912   59.3230 C.ar    1  ZINC000434204837    0.1100
     20 C20        -9.4113   -0.8747   58.9326 C.ar    1  ZINC000434204837   -0.1100
     21 C21        -9.4625    0.3526   59.5642 C.ar    1  ZINC000434204837   -0.0900
     22 C22       -10.3701    0.5691   60.5847 C.ar    1  ZINC000434204837   -0.0600
     23 C23       -10.4234    1.9094   61.2718 C.3     1  ZINC000434204837   -0.0600
     24 C24       -11.7858    2.5582   61.0192 C.3     1  ZINC000434204837   -0.1500
     25 C25       -10.2200    1.7196   62.7764 C.3     1  ZINC000434204837   -0.1500
     26 C26       -11.2292   -0.4414   60.9758 C.ar    1  ZINC000434204837   -0.1000
     27 C27       -11.1865   -1.6689   60.3441 C.ar    1  ZINC000434204837   -0.0900
     28 N28       -11.1130   -2.8308   52.2892 N.2     1  ZINC000434204837   -0.3600
     29 O29       -11.4588   -1.9562   51.5232 O.3     1  ZINC000434204837    0.0900
     30 H30       -11.5087    2.2556   49.2714 H       1  ZINC000434204837    0.0800
     31 H31       -13.0573    3.0697   48.9437 H       1  ZINC000434204837    0.0700
     32 H32       -12.6560    2.5534   50.5993 H       1  ZINC000434204837    0.0700
     33 H33       -13.7479    1.4493   47.2702 H       1  ZINC000434204837    0.1300
     34 H34       -14.8061   -0.7334   46.8460 H       1  ZINC000434204837    0.1200
     35 H35       -14.8626   -2.4398   48.6202 H       1  ZINC000434204837    0.1300
     36 H36       -13.8602   -1.9638   50.8185 H       1  ZINC000434204837    0.1300
     37 H37       -11.8281    1.0350   51.5071 H       1  ZINC000434204837    0.1200
     38 H38       -13.3884    0.6932   52.2925 H       1  ZINC000434204837    0.1200
     39 H39       -12.0043   -4.0735   54.8596 H       1  ZINC000434204837    0.1300
     40 H40       -10.2493   -3.8795   54.6349 H       1  ZINC000434204837    0.1400
     41 H41        -8.7018   -1.0435   58.1361 H       1  ZINC000434204837    0.1400
     42 H42        -8.7928    1.1437   59.2610 H       1  ZINC000434204837    0.1400
     43 H43        -9.6362    2.5516   60.8770 H       1  ZINC000434204837    0.0800
     44 H44       -12.5729    1.9158   61.4141 H       1  ZINC000434204837    0.0600
     45 H45       -11.8243    3.5276   61.5161 H       1  ZINC000434204837    0.0600
     46 H46       -11.9307    2.6934   59.9473 H       1  ZINC000434204837    0.0600
     47 H47        -9.2494    1.2573   62.9564 H       1  ZINC000434204837    0.0600
     48 H48       -10.2586    2.6890   63.2733 H       1  ZINC000434204837    0.0600
     49 H49       -11.0072    1.0774   63.1712 H       1  ZINC000434204837    0.0600
     50 H50       -11.9367   -0.2694   61.7735 H       1  ZINC000434204837    0.1400
     51 H51       -11.8577   -2.4578   60.6499 H       1  ZINC000434204837    0.1400
@<TRIPOS>BOND
     1     1     2    1
     2     1    30    1
     3     1    31    1
     4     1    32    1
     5     2     7   ar
     6     2     3   ar
     7     3     4   ar
     8     3    33    1
     9     4     5   ar
    10     4    34    1
    11     5     6   ar
    12     5    35    1
    13     6     7   ar
    14     6    36    1
    15     7     8    1
    16     8     9    1
    17     8    37    1
    18     8    38    1
    19     9    29    1
    20     9    10    2
    21    10    11    1
    22    11    12    1
    23    11    28    2
    24    12    13    1
    25    12    39    1
    26    12    40    1
    27    13    14    1
    28    14    18    1
    29    14    15    2
    30    15    16    1
    31    16    17    2
    32    17    18    1
    33    18    19    1
    34    19    27   ar
    35    19    20   ar
    36    20    21   ar
    37    20    41    1
    38    21    22   ar
    39    21    42    1
    40    22    23    1
    41    22    26   ar
    42    23    24    1
    43    23    25    1
    44    23    43    1
    45    24    44    1
    46    24    45    1
    47    24    46    1
    48    25    47    1
    49    25    48    1
    50    25    49    1
    51    26    27   ar
    52    26    50    1
    53    27    51    1
    54    28    29    1
@<TRIPOS>SUBSTRUCTURE
     1 ZINC000434204837        1 TEMP              0 ****  ****    0 ROOT


##########                                Name:    ZINC000523863446
##########                DOCK_Rotatable_Bonds:                  10
##########                         Heavy_Atoms:                  29
##########                    Molecular_Weight:             396.533
##########                DOCK_Rotatable_Bonds:                  10
##########                       Formal_Charge:          -0.0200008
##########                     HBond_Acceptors:                   6
##########                        HBond_Donors:                   1
##########                         Heavy_Atoms:                  29
##########                          Grid_Score:          -37.309269
##########                     Grid_vdw_energy:          -37.318447
##########                      Grid_es_energy:            0.009178
##########           Internal_energy_repulsive:           21.479416

@<TRIPOS>MOLECULE
ZINC000523863446
 61 63 1 0 0
SMALL
USER_CHARGES


@<TRIPOS>ATOM
      1 C1        -14.1766    0.1147   52.1971 C.3     1  ZINC000523863446   -0.1700
      2 C2        -13.1898   -0.3455   51.1222 C.3     1  ZINC000523863446    0.1500
      3 H3        -12.6710    0.5203   50.7106 H       1  ZINC000523863446    0.1300
      4 C4        -12.1859   -1.2891   51.7327 C.2     1  ZINC000523863446    0.5100
      5 O5        -12.2932   -2.4845   51.5583 O.2     1  ZINC000523863446   -0.5100
      6 N6        -11.1689   -0.8047   52.4726 N.am    1  ZINC000523863446   -0.6000
      7 C7        -11.0404    0.6391   52.6849 C.3     1  ZINC000523863446    0.0700
      8 C8        -10.1920   -1.7221   53.0647 C.3     1  ZINC000523863446    0.1000
      9 C9        -10.8068   -2.4099   54.2564 C.2     1  ZINC000523863446    0.5000
     10 O10       -11.1248   -3.5781   54.1849 O.2     1  ZINC000523863446   -0.5200
     11 N11       -11.0035   -1.7267   55.4013 N.am    1  ZINC000523863446   -0.7200
     12 C12       -11.5995   -2.3958   56.5603 C.3     1  ZINC000523863446    0.1900
     13 H13       -12.0311   -3.3470   56.2486 H       1  ZINC000523863446    0.1000
     14 C14       -12.6958   -1.5084   57.1535 C.3     1  ZINC000523863446   -0.1200
     15 C15       -13.6749   -2.3719   57.9514 C.3     1  ZINC000523863446   -0.0900
     16 C16       -13.9242   -1.7300   59.3177 C.3     1  ZINC000523863446   -0.1200
     17 C17       -14.9033   -2.5934   60.1157 C.3     1  ZINC000523863446   -0.1200
     18 C18       -16.2258   -2.7016   59.3541 C.3     1  ZINC000523863446   -0.1200
     19 C19       -15.9764   -3.3434   57.9877 C.3     1  ZINC000523863446   -0.1200
     20 C20       -14.9974   -2.4800   57.1897 C.3     1  ZINC000523863446   -0.1100
     21 C21       -10.5364   -2.6429   57.5994 C.ar    1  ZINC000523863446   -0.0900
     22 C22        -9.8637   -1.5771   58.1672 C.ar    1  ZINC000523863446   -0.1100
     23 C23        -8.8885   -1.8038   59.1203 C.ar    1  ZINC000523863446   -0.1200
     24 C24        -8.5862   -3.0965   59.5059 C.ar    1  ZINC000523863446   -0.1200
     25 C25        -9.2595   -4.1623   58.9388 C.ar    1  ZINC000523863446   -0.1200
     26 C26       -10.2377   -3.9353   57.9888 C.ar    1  ZINC000523863446   -0.1000
     27 N27       -13.9180   -1.0323   50.0525 N.pl3   1  ZINC000523863446   -0.3600
     28 C28       -15.0502   -1.7522   50.1982 C.2     1  ZINC000523863446    0.0600
     29 C29       -15.4018   -2.2192   48.9778 C.2     1  ZINC000523863446   -0.2700
     30 C30       -14.4520   -1.7695   48.0548 C.2     1  ZINC000523863446    0.0500
     31 N31       -13.5655   -1.0528   48.6970 N.2     1  ZINC000523863446   -0.2900
     32 H32       -14.6954   -0.7511   52.6086 H       1  ZINC000523863446    0.0700
     33 H33       -13.6348    0.6257   52.9929 H       1  ZINC000523863446    0.1000
     34 H34       -14.9027    0.7973   51.7555 H       1  ZINC000523863446    0.0800
     35 H35       -11.5887    0.9247   53.5826 H       1  ZINC000523863446    0.0700
     36 H36        -9.9879    0.8964   52.8048 H       1  ZINC000523863446    0.0800
     37 H37       -11.4486    1.1705   51.8253 H       1  ZINC000523863446    0.0800
     38 H38        -9.8996   -2.4679   52.3256 H       1  ZINC000523863446    0.1100
     39 H39        -9.3130   -1.1612   53.3824 H       1  ZINC000523863446    0.1100
     40 H40       -10.7504   -0.7920   55.4580 H       1  ZINC000523863446    0.4000
     41 H41       -12.2455   -0.7661   57.8125 H       1  ZINC000523863446    0.0800
     42 H42       -13.2297   -1.0034   56.3484 H       1  ZINC000523863446    0.0700
     43 H43       -13.2526   -3.3672   58.0892 H       1  ZINC000523863446    0.0700
     44 H44       -12.9821   -1.6530   59.8603 H       1  ZINC000523863446    0.0600
     45 H45       -14.3465   -0.7346   59.1799 H       1  ZINC000523863446    0.0600
     46 H46       -14.4809   -3.5888   60.2536 H       1  ZINC000523863446    0.0600
     47 H47       -15.0810   -2.1362   61.0891 H       1  ZINC000523863446    0.0600
     48 H48       -16.9233   -3.3166   59.9226 H       1  ZINC000523863446    0.0600
     49 H49       -16.6481   -1.7062   59.2163 H       1  ZINC000523863446    0.0600
     50 H50       -15.5541   -4.3388   58.1256 H       1  ZINC000523863446    0.0600
     51 H51       -16.9187   -3.4204   57.4451 H       1  ZINC000523863446    0.0600
     52 H52       -15.4197   -1.4846   57.0520 H       1  ZINC000523863446    0.0600
     53 H53       -14.8198   -2.9372   56.2164 H       1  ZINC000523863446    0.0600
     54 H54       -10.0999   -0.5672   57.8660 H       1  ZINC000523863446    0.1200
     55 H55        -8.3625   -0.9712   59.5634 H       1  ZINC000523863446    0.1200
     56 H56        -7.8238   -3.2736   60.2500 H       1  ZINC000523863446    0.1200
     57 H57        -9.0231   -5.1721   59.2398 H       1  ZINC000523863446    0.1200
     58 H58       -10.7637   -4.7680   57.5457 H       1  ZINC000523863446    0.1200
     59 H59       -15.5803   -1.9248   51.1231 H       1  ZINC000523863446    0.1700
     60 H60       -16.2632   -2.8316   48.7558 H       1  ZINC000523863446    0.1500
     61 H61       -14.4531   -1.9741   46.9944 H       1  ZINC000523863446    0.1800
@<TRIPOS>BOND
     1     1     2    1
     2     1    32    1
     3     1    33    1
     4     1    34    1
     5     2     3    1
     6     2     4    1
     7     2    27    1
     8     4     5    2
     9     4     6   am
    10     6     7    1
    11     6     8    1
    12     7    35    1
    13     7    36    1
    14     7    37    1
    15     8     9    1
    16     8    38    1
    17     8    39    1
    18     9    10    2
    19     9    11   am
    20    11    12    1
    21    11    40    1
    22    12    13    1
    23    12    14    1
    24    12    21    1
    25    14    15    1
    26    14    41    1
    27    14    42    1
    28    15    20    1
    29    15    16    1
    30    15    43    1
    31    16    17    1
    32    16    44    1
    33    16    45    1
    34    17    18    1
    35    17    46    1
    36    17    47    1
    37    18    19    1
    38    18    48    1
    39    18    49    1
    40    19    20    1
    41    19    50    1
    42    19    51    1
    43    20    52    1
    44    20    53    1
    45    21    26   ar
    46    21    22   ar
    47    22    23   ar
    48    22    54    1
    49    23    24   ar
    50    23    55    1
    51    24    25   ar
    52    24    56    1
    53    25    26   ar
    54    25    57    1
    55    26    58    1
    56    27    31    1
    57    27    28    1
    58    28    29    2
    59    28    59    1
    60    29    30    1
    61    29    60    1
    62    30    31    2
    63    30    61    1
@<TRIPOS>SUBSTRUCTURE
     1 ZINC000523863446        1 TEMP              0 ****  ****    0 ROOT


##########                                Name:    ZINC001105194920
##########                DOCK_Rotatable_Bonds:                   8
##########                         Heavy_Atoms:                  25
##########                    Molecular_Weight:             346.392
##########                DOCK_Rotatable_Bonds:                   8
##########                       Formal_Charge:          -0.0100007
##########                     HBond_Acceptors:                  10
##########                        HBond_Donors:                   3
##########                         Heavy_Atoms:                  25
##########                          Grid_Score:          -37.243286
##########                     Grid_vdw_energy:          -36.241531
##########                      Grid_es_energy:           -1.001756
##########           Internal_energy_repulsive:            7.403446

@<TRIPOS>MOLECULE
ZINC001105194920
 47 49 1 0 0
SMALL
USER_CHARGES


@<TRIPOS>ATOM
      1 C1        -10.2851    0.6688   57.8053 C.3     1  ZINC001105194920    0.0300
      2 O2         -9.5361   -0.2233   58.6330 O.3     1  ZINC001105194920   -0.3900
      3 C3         -9.9498   -0.2326   60.0008 C.3     1  ZINC001105194920    0.0700
      4 C4         -9.0309   -1.1542   60.8052 C.3     1  ZINC001105194920    0.0900
      5 H5         -8.0154   -1.0852   60.4152 H       1  ZINC001105194920    0.0900
      6 C6         -9.0428   -0.7297   62.2752 C.3     1  ZINC001105194920   -0.1800
      7 N7         -9.5058   -2.5398   60.6918 N.3     1  ZINC001105194920   -0.6800
      8 C8         -8.8564   -3.2287   59.5686 C.3     1  ZINC001105194920    0.1400
      9 C9         -9.9075   -3.8441   58.6813 C.2     1  ZINC001105194920   -0.0200
     10 C10       -11.1746   -3.4033   58.5013 C.2     1  ZINC001105194920   -0.0200
     11 N11       -11.7504   -4.2588   57.6252 N.pl3   1  ZINC001105194920   -0.2800
     12 C12       -13.1261   -4.1811   57.1277 C.3     1  ZINC001105194920    0.1000
     13 C13       -13.3494   -3.0615   56.0950 C.3     1  ZINC001105194920    0.1100
     14 N14       -13.0131   -4.0732   55.0745 N.am    1  ZINC001105194920   -0.6300
     15 C15       -12.5246   -4.0226   53.8194 C.2     1  ZINC001105194920    0.6200
     16 O16       -12.3415   -5.0506   53.1966 O.2     1  ZINC001105194920   -0.5400
     17 C17       -12.2116   -2.7182   53.2005 C.ar    1  ZINC001105194920   -0.0600
     18 N18       -10.9542   -2.2885   53.1471 N.ar    1  ZINC001105194920   -0.3700
     19 C19       -10.6785   -1.1246   52.5946 C.ar    1  ZINC001105194920   -0.0200
     20 C20       -11.6946   -0.3413   52.0661 C.ar    1  ZINC001105194920    0.1500
     21 N21       -12.9479   -0.7546   52.1121 N.ar    1  ZINC001105194920   -0.5100
     22 C22       -13.2399   -1.9284   52.6604 C.ar    1  ZINC001105194920    0.4200
     23 N23       -14.5509   -2.3652   52.7104 N.pl3   1  ZINC001105194920   -0.8100
     24 C24       -13.4266   -5.1624   55.9803 C.3     1  ZINC001105194920    0.1100
     25 N25       -10.8816   -5.1525   57.3039 N.2     1  ZINC001105194920   -0.0800
     26 N26        -9.7702   -4.9300   57.9124 N.2     1  ZINC001105194920   -0.2600
     27 H27       -10.1798    1.6869   58.1800 H       1  ZINC001105194920    0.0400
     28 H28        -9.9101    0.6172   56.7831 H       1  ZINC001105194920    0.0800
     29 H29       -11.3367    0.3826   57.8213 H       1  ZINC001105194920    0.0400
     30 H30        -9.8938    0.7785   60.4042 H       1  ZINC001105194920    0.0600
     31 H31       -10.9759   -0.5942   60.0675 H       1  ZINC001105194920    0.0500
     32 H32       -10.0584   -0.7987   62.6650 H       1  ZINC001105194920    0.0700
     33 H33        -8.3881   -1.3863   62.8482 H       1  ZINC001105194920    0.0500
     34 H34        -8.6904    0.2983   62.3593 H       1  ZINC001105194920    0.0600
     35 H35        -9.3639   -3.0424   61.5552 H       1  ZINC001105194920    0.3500
     36 H36        -8.2693   -2.5125   58.9937 H       1  ZINC001105194920    0.0900
     37 H37        -8.2013   -4.0108   59.9520 H       1  ZINC001105194920    0.0500
     38 H38       -11.6337   -2.5423   58.9641 H       1  ZINC001105194920    0.1800
     39 H39       -13.8683   -4.1986   57.9259 H       1  ZINC001105194920    0.1500
     40 H40       -14.3802   -2.7109   56.0431 H       1  ZINC001105194920    0.1200
     41 H41       -12.6255   -2.2495   56.1639 H       1  ZINC001105194920    0.1000
     42 H42        -9.6564   -0.7783   52.5531 H       1  ZINC001105194920    0.1800
     43 H43       -11.4593    0.6114   51.6150 H       1  ZINC001105194920    0.1800
     44 H44       -15.2501   -1.8516   52.2766 H       1  ZINC001105194920    0.4000
     45 H45       -14.7714   -3.1853   53.1792 H       1  ZINC001105194920    0.4300
     46 H46       -12.7643   -6.0279   55.9576 H       1  ZINC001105194920    0.1100
     47 H47       -14.4800   -5.4290   55.8947 H       1  ZINC001105194920    0.1200
@<TRIPOS>BOND
     1     1     2    1
     2     1    27    1
     3     1    28    1
     4     1    29    1
     5     2     3    1
     6     3     4    1
     7     3    30    1
     8     3    31    1
     9     4     5    1
    10     4     6    1
    11     4     7    1
    12     6    32    1
    13     6    33    1
    14     6    34    1
    15     7     8    1
    16     7    35    1
    17     8     9    1
    18     8    36    1
    19     8    37    1
    20     9    26    1
    21     9    10    2
    22    10    11    1
    23    10    38    1
    24    11    12    1
    25    11    25    1
    26    12    24    1
    27    12    13    1
    28    12    39    1
    29    13    14    1
    30    13    40    1
    31    13    41    1
    32    14    15   am
    33    14    24    1
    34    15    16    2
    35    15    17    1
    36    17    22   ar
    37    17    18   ar
    38    18    19   ar
    39    19    20   ar
    40    19    42    1
    41    20    21   ar
    42    20    43    1
    43    21    22   ar
    44    22    23    1
    45    23    44    1
    46    23    45    1
    47    24    46    1
    48    24    47    1
    49    25    26    2
@<TRIPOS>SUBSTRUCTURE
     1 ZINC001105194920        1 TEMP              0 ****  ****    0 ROOT


##########                                Name:    ZINC001109082135
##########                DOCK_Rotatable_Bonds:                   9
##########                         Heavy_Atoms:                  27
##########                    Molecular_Weight:             373.455
##########                DOCK_Rotatable_Bonds:                   9
##########                       Formal_Charge:          -0.0100003
##########                     HBond_Acceptors:                   8
##########                        HBond_Donors:                   3
##########                         Heavy_Atoms:                  27
##########                          Grid_Score:          -37.203300
##########                     Grid_vdw_energy:          -36.669632
##########                      Grid_es_energy:           -0.533669
##########           Internal_energy_repulsive:           17.833866

@<TRIPOS>MOLECULE
ZINC001109082135
 54 57 1 0 0
SMALL
USER_CHARGES


@<TRIPOS>ATOM
      1 C1        -14.0320   -1.0477   48.4684 C.3     1  ZINC001109082135   -0.1400
      2 C2        -15.2070   -2.0103   48.2857 C.3     1  ZINC001109082135   -0.1400
      3 C3        -16.0216   -2.0548   49.5528 C.2     1  ZINC001109082135    0.5100
      4 O4        -17.2081   -2.3011   49.5026 O.2     1  ZINC001109082135   -0.5400
      5 N5        -15.4317   -1.8210   50.7418 N.am    1  ZINC001109082135   -0.7200
      6 C6        -16.2239   -1.8626   51.9735 C.3     1  ZINC001109082135    0.1000
      7 C7        -15.3196   -2.1558   53.1427 C.2     1  ZINC001109082135    0.5100
      8 O8        -15.5414   -1.6503   54.2227 O.2     1  ZINC001109082135   -0.5300
      9 N9        -14.2642   -2.9797   52.9884 N.am    1  ZINC001109082135   -0.7100
     10 C10       -13.3860   -3.2660   54.1256 C.3     1  ZINC001109082135    0.1100
     11 H11       -13.9733   -3.4556   55.0241 H       1  ZINC001109082135    0.0900
     12 C12       -12.4643   -4.4702   53.8127 C.3     1  ZINC001109082135   -0.1600
     13 C13       -11.0312   -3.8633   53.8962 C.3     1  ZINC001109082135    0.0600
     14 H14       -10.2262   -4.5788   54.0639 H       1  ZINC001109082135    0.1300
     15 C15       -10.8914   -2.9799   52.6200 C.3     1  ZINC001109082135   -0.1200
     16 C16       -11.8138   -1.7714   52.9135 C.3     1  ZINC001109082135   -0.1100
     17 C17       -12.3897   -2.0907   54.3589 C.3     1  ZINC001109082135    0.0400
     18 H18       -12.7704   -1.2332   54.9138 H       1  ZINC001109082135    0.1200
     19 N19       -11.2208   -2.8233   54.9696 N.3     1  ZINC001109082135   -0.4800
     20 C20       -11.5941   -3.4334   56.2527 C.3     1  ZINC001109082135    0.0800
     21 C21       -10.6511   -2.9581   57.3280 C.2     1  ZINC001109082135    0.2000
     22 C22       -10.1235   -3.8476   58.2142 C.2     1  ZINC001109082135   -0.2900
     23 C23        -9.2441   -3.3697   59.2076 C.2     1  ZINC001109082135    0.5200
     24 O24        -8.7490   -4.1325   60.0206 O.2     1  ZINC001109082135   -0.5400
     25 N25        -8.9614   -2.0498   59.2393 N.am    1  ZINC001109082135   -0.6300
     26 C26        -9.5169   -1.2215   58.3330 C.2     1  ZINC001109082135    0.4300
     27 C27        -9.1910    0.2490   58.3822 C.3     1  ZINC001109082135   -0.1400
     28 C28        -8.7414    0.9167   57.0811 C.3     1  ZINC001109082135   -0.1400
     29 C29       -10.1325    1.2060   57.6486 C.3     1  ZINC001109082135   -0.1400
     30 N30       -10.3275   -1.6653   57.4097 N.2     1  ZINC001109082135   -0.5300
     31 H31       -13.4053   -1.3913   49.2913 H       1  ZINC001109082135    0.0600
     32 H32       -13.4429   -1.0154   47.5519 H       1  ZINC001109082135    0.0600
     33 H33       -14.4107   -0.0503   48.6921 H       1  ZINC001109082135    0.0600
     34 H34       -15.8338   -1.6665   47.4627 H       1  ZINC001109082135    0.1000
     35 H35       -14.8283   -3.0076   48.0620 H       1  ZINC001109082135    0.1000
     36 H36       -14.4825   -1.6253   50.7820 H       1  ZINC001109082135    0.4100
     37 H37       -16.7120   -0.8997   52.1241 H       1  ZINC001109082135    0.1000
     38 H38       -16.9792   -2.6443   51.8934 H       1  ZINC001109082135    0.1000
     39 H39       -14.0861   -3.3830   52.1244 H       1  ZINC001109082135    0.4000
     40 H40       -12.5925   -5.2554   54.5578 H       1  ZINC001109082135    0.0800
     41 H41       -12.6608   -4.8540   52.8116 H       1  ZINC001109082135    0.0800
     42 H42        -9.8597   -2.6526   52.4910 H       1  ZINC001109082135    0.0700
     43 H43       -11.2365   -3.5210   51.7390 H       1  ZINC001109082135    0.0700
     44 H44       -11.2394   -0.8452   52.9298 H       1  ZINC001109082135    0.0700
     45 H45       -12.6162   -1.7136   52.1779 H       1  ZINC001109082135    0.0700
     46 H46       -12.6132   -3.1444   56.5096 H       1  ZINC001109082135    0.1000
     47 H47       -11.5339   -4.5185   56.1703 H       1  ZINC001109082135    0.0700
     48 H48       -10.3735   -4.8968   58.1575 H       1  ZINC001109082135    0.1600
     49 H49        -8.3594   -1.6981   59.9138 H       1  ZINC001109082135    0.4200
     50 H50        -8.7398    0.5997   59.3104 H       1  ZINC001109082135    0.1300
     51 H51        -7.9942    1.7071   57.1531 H       1  ZINC001109082135    0.1100
     52 H52        -8.6813    0.2925   56.1897 H       1  ZINC001109082135    0.1100
     53 H53       -10.9877    0.7722   57.1303 H       1  ZINC001109082135    0.1100
     54 H54       -10.3005    2.1867   58.0938 H       1  ZINC001109082135    0.1100
@<TRIPOS>BOND
     1     1     2    1
     2     1    31    1
     3     1    32    1
     4     1    33    1
     5     2     3    1
     6     2    34    1
     7     2    35    1
     8     3     4    2
     9     3     5   am
    10     5     6    1
    11     5    36    1
    12     6     7    1
    13     6    37    1
    14     6    38    1
    15     7     8    2
    16     7     9   am
    17     9    10    1
    18     9    39    1
    19    10    11    1
    20    10    17    1
    21    10    12    1
    22    12    13    1
    23    12    40    1
    24    12    41    1
    25    13    14    1
    26    13    19    1
    27    13    15    1
    28    15    16    1
    29    15    42    1
    30    15    43    1
    31    16    17    1
    32    16    44    1
    33    16    45    1
    34    17    18    1
    35    17    19    1
    36    19    20    1
    37    20    21    1
    38    20    46    1
    39    20    47    1
    40    21    30    1
    41    21    22    2
    42    22    23    1
    43    22    48    1
    44    23    24    2
    45    23    25   am
    46    25    26    1
    47    25    49    1
    48    26    27    1
    49    26    30    2
    50    27    29    1
    51    27    28    1
    52    27    50    1
    53    28    29    1
    54    28    51    1
    55    28    52    1
    56    29    53    1
    57    29    54    1
@<TRIPOS>SUBSTRUCTURE
     1 ZINC001109082135        1 TEMP              0 ****  ****    0 ROOT


##########                                Name:    ZINC000642096826
##########                DOCK_Rotatable_Bonds:                  12
##########                         Heavy_Atoms:                  25
##########                    Molecular_Weight:             345.485
##########                DOCK_Rotatable_Bonds:                  12
##########                       Formal_Charge:          0.00999919
##########                     HBond_Acceptors:                   5
##########                        HBond_Donors:                   1
##########                         Heavy_Atoms:                  25
##########                          Grid_Score:          -37.201870
##########                     Grid_vdw_energy:          -36.350487
##########                      Grid_es_energy:           -0.851381
##########           Internal_energy_repulsive:           17.303541

@<TRIPOS>MOLECULE
ZINC000642096826
 56 57 1 0 0
SMALL
USER_CHARGES


@<TRIPOS>ATOM
      1 C1        -12.7443   -4.2073   53.9384 C.3     1  ZINC000642096826   -0.1500
      2 C2        -13.1496   -4.3871   55.4028 C.3     1  ZINC000642096826   -0.1400
      3 C3        -13.7818   -3.0933   55.9196 C.3     1  ZINC000642096826    0.1200
      4 N4        -14.0062   -3.2021   57.3631 N.am    1  ZINC000642096826   -0.6200
      5 C5        -15.2639   -3.7576   57.8690 C.3     1  ZINC000642096826    0.1100
      6 C6        -16.3619   -2.6955   57.7826 C.3     1  ZINC000642096826   -0.1400
      7 C7        -16.2175   -1.7166   58.9495 C.3     1  ZINC000642096826   -0.1500
      8 C8        -13.0557   -2.7914   58.2258 C.2     1  ZINC000642096826    0.5200
      9 O9        -13.2410   -2.8831   59.4208 O.2     1  ZINC000642096826   -0.5200
     10 C10       -11.7625   -2.2185   57.7056 C.3     1  ZINC000642096826    0.0400
     11 N11       -10.6481   -2.6894   58.5386 N.3     1  ZINC000642096826   -0.5200
     12 C12       -10.1670   -4.0003   58.0823 C.3     1  ZINC000642096826    0.0100
     13 C13        -9.5563   -1.7069   58.5617 C.3     1  ZINC000642096826    0.0900
     14 C14        -9.4044   -1.1575   59.9568 C.ar    1  ZINC000642096826   -0.0500
     15 C15        -8.8324   -1.9378   60.9459 C.ar    1  ZINC000642096826   -0.1000
     16 C16        -8.6909   -1.4411   62.2251 C.ar    1  ZINC000642096826   -0.0600
     17 C17        -9.1259   -0.1481   62.5204 C.ar    1  ZINC000642096826   -0.1400
     18 C18        -8.9769    0.3908   63.8890 C.2     1  ZINC000642096826    0.5600
     19 O19        -9.9577    0.5537   64.5882 O.2     1  ZINC000642096826   -0.5300
     20 N20        -7.7535    0.7016   64.3614 N.am    1  ZINC000642096826   -0.7000
     21 C21        -7.6060    1.2372   65.7170 C.3     1  ZINC000642096826    0.0800
     22 C22        -7.3098    0.2427   66.8414 C.3     1  ZINC000642096826   -0.1900
     23 C23        -6.2131    1.1886   66.3481 C.3     1  ZINC000642096826   -0.1900
     24 C24        -9.7016    0.6340   61.5179 C.ar    1  ZINC000642096826   -0.0900
     25 C25        -9.8324    0.1270   60.2416 C.ar    1  ZINC000642096826   -0.1200
     26 H26       -13.6267   -3.9714   53.3436 H       1  ZINC000642096826    0.0600
     27 H27       -12.0237   -3.3936   53.8581 H       1  ZINC000642096826    0.0600
     28 H28       -12.2939   -5.1291   53.5702 H       1  ZINC000642096826    0.0600
     29 H29       -13.8702   -5.2010   55.4830 H       1  ZINC000642096826    0.0600
     30 H30       -12.2672   -4.6232   55.9976 H       1  ZINC000642096826    0.0600
     31 H31       -13.1131   -2.2564   55.7179 H       1  ZINC000642096826    0.0800
     32 H32       -14.7338   -2.9275   55.4153 H       1  ZINC000642096826    0.0800
     33 H33       -15.5468   -4.6223   57.2687 H       1  ZINC000642096826    0.0800
     34 H34       -15.1346   -4.0629   58.9074 H       1  ZINC000642096826    0.0800
     35 H35       -16.2704   -2.1542   56.8410 H       1  ZINC000642096826    0.0700
     36 H36       -17.3383   -3.1775   57.8313 H       1  ZINC000642096826    0.0700
     37 H37       -16.9998   -0.9601   58.8880 H       1  ZINC000642096826    0.0600
     38 H38       -16.3090   -2.2580   59.8913 H       1  ZINC000642096826    0.0600
     39 H39       -15.2411   -1.2346   58.9009 H       1  ZINC000642096826    0.0600
     40 H40       -11.6094   -2.5431   56.6764 H       1  ZINC000642096826    0.0600
     41 H41       -11.8075   -1.1300   57.7403 H       1  ZINC000642096826    0.1000
     42 H42        -9.8237   -3.9224   57.0508 H       1  ZINC000642096826    0.0200
     43 H43        -9.3422   -4.3255   58.7163 H       1  ZINC000642096826    0.0700
     44 H44       -10.9784   -4.7258   58.1414 H       1  ZINC000642096826    0.0900
     45 H45        -8.6271   -2.1890   58.2580 H       1  ZINC000642096826    0.0500
     46 H46        -9.7852   -0.8931   57.8737 H       1  ZINC000642096826    0.0900
     47 H47        -8.4964   -2.9382   60.7161 H       1  ZINC000642096826    0.1300
     48 H48        -8.2450   -2.0515   62.9965 H       1  ZINC000642096826    0.1400
     49 H49        -6.9707    0.5705   63.8039 H       1  ZINC000642096826    0.4000
     50 H50        -8.2369    2.0935   65.9553 H       1  ZINC000642096826    0.1400
     51 H51        -7.7461    0.4444   67.8196 H       1  ZINC000642096826    0.1000
     52 H52        -7.2248   -0.8103   66.5724 H       1  ZINC000642096826    0.1000
     53 H53        -5.4065    0.7579   65.7548 H       1  ZINC000642096826    0.1000
     54 H54        -5.9277    2.0127   67.0021 H       1  ZINC000642096826    0.1100
     55 H55       -10.0404    1.6351   61.7400 H       1  ZINC000642096826    0.1200
     56 H56       -10.2774    0.7313   59.4648 H       1  ZINC000642096826    0.1300
@<TRIPOS>BOND
     1     1     2    1
     2     1    26    1
     3     1    27    1
     4     1    28    1
     5     2     3    1
     6     2    29    1
     7     2    30    1
     8     3     4    1
     9     3    31    1
    10     3    32    1
    11     4     5    1
    12     4     8   am
    13     5     6    1
    14     5    33    1
    15     5    34    1
    16     6     7    1
    17     6    35    1
    18     6    36    1
    19     7    37    1
    20     7    38    1
    21     7    39    1
    22     8     9    2
    23     8    10    1
    24    10    11    1
    25    10    40    1
    26    10    41    1
    27    11    12    1
    28    11    13    1
    29    12    42    1
    30    12    43    1
    31    12    44    1
    32    13    14    1
    33    13    45    1
    34    13    46    1
    35    14    25   ar
    36    14    15   ar
    37    15    16   ar
    38    15    47    1
    39    16    17   ar
    40    16    48    1
    41    17    18    1
    42    17    24   ar
    43    18    19    2
    44    18    20   am
    45    20    21    1
    46    20    49    1
    47    21    23    1
    48    21    22    1
    49    21    50    1
    50    22    23    1
    51    22    51    1
    52    22    52    1
    53    23    53    1
    54    23    54    1
    55    24    25   ar
    56    24    55    1
    57    25    56    1
@<TRIPOS>SUBSTRUCTURE
     1 ZINC000642096826        1 TEMP              0 ****  ****    0 ROOT


##########                                Name:    ZINC000046390957
##########                DOCK_Rotatable_Bonds:                   9
##########                         Heavy_Atoms:                  29
##########                    Molecular_Weight:             408.521
##########                DOCK_Rotatable_Bonds:                   9
##########                       Formal_Charge:           0.0100005
##########                     HBond_Acceptors:                   6
##########                        HBond_Donors:                   1
##########                         Heavy_Atoms:                  29
##########                          Grid_Score:          -37.150024
##########                     Grid_vdw_energy:          -36.494911
##########                      Grid_es_energy:           -0.655112
##########           Internal_energy_repulsive:           13.652384

@<TRIPOS>MOLECULE
ZINC000046390957
 53 55 1 0 0
SMALL
USER_CHARGES


@<TRIPOS>ATOM
      1 C1         -9.6719   -2.8589   60.0824 C.3     1  ZINC000046390957   -0.1100
      2 C2        -10.1167   -1.7835   61.0398 C.ar    1  ZINC000046390957   -0.0600
      3 C3         -9.1796   -0.9892   61.6710 C.ar    1  ZINC000046390957   -0.1200
      4 C4         -9.5868   -0.0026   62.5501 C.ar    1  ZINC000046390957   -0.1100
      5 C5        -10.9328    0.1925   62.7998 C.ar    1  ZINC000046390957   -0.1200
      6 C6        -11.8750   -0.5981   62.1715 C.ar    1  ZINC000046390957   -0.0800
      7 C7        -13.3417   -0.3845   62.4439 C.3     1  ZINC000046390957   -0.1100
      8 C8        -11.4695   -1.5864   61.2841 C.ar    1  ZINC000046390957    0.1300
      9 N9        -12.4215   -2.3887   60.6455 N.am    1  ZINC000046390957   -0.6800
     10 C10       -13.0500   -1.9394   59.5413 C.2     1  ZINC000046390957    0.5200
     11 O11       -12.7905   -0.8393   59.1010 O.2     1  ZINC000046390957   -0.4900
     12 C12       -14.0753   -2.8035   58.8534 C.3     1  ZINC000046390957    0.0700
     13 H13       -14.3126   -3.6590   59.4859 H       1  ZINC000046390957    0.1100
     14 C14       -15.3447   -1.9870   58.6027 C.3     1  ZINC000046390957   -0.1700
     15 O15       -13.5425   -3.2714   57.5863 O.3     1  ZINC000046390957   -0.3300
     16 C16       -14.1439   -4.3331   57.0272 C.2     1  ZINC000046390957    0.4700
     17 O17       -14.5715   -5.2220   57.7249 O.2     1  ZINC000046390957   -0.4800
     18 C18       -14.2858   -4.4164   55.5292 C.3     1  ZINC000046390957   -0.0300
     19 C19       -13.0213   -3.9203   54.8764 C.2     1  ZINC000046390957    0.0800
     20 C20       -11.8055   -4.1750   55.3693 C.2     1  ZINC000046390957   -0.2500
     21 S21       -10.6206   -3.4168   54.3083 S.3     1  ZINC000046390957    0.1300
     22 C22       -11.8779   -2.8327   53.3075 C.2     1  ZINC000046390957    0.0600
     23 C23       -11.6767   -2.0085   52.0621 C.3     1  ZINC000046390957    0.0000
     24 C24       -10.5983   -0.9845   52.3063 C.ar    1  ZINC000046390957   -0.0900
     25 C25        -9.2674   -1.3492   52.2240 C.ar    1  ZINC000046390957   -0.0900
     26 C26        -8.2782   -0.4100   52.4481 C.ar    1  ZINC000046390957   -0.1200
     27 C27        -8.6199    0.8941   52.7540 C.ar    1  ZINC000046390957   -0.1200
     28 C28        -9.9507    1.2591   52.8354 C.ar    1  ZINC000046390957   -0.1200
     29 C29       -10.9399    0.3208   52.6071 C.ar    1  ZINC000046390957   -0.1100
     30 N30       -13.0236   -3.2047   53.7699 N.2     1  ZINC000046390957   -0.4500
     31 H31        -9.4988   -2.4212   59.0993 H       1  ZINC000046390957    0.0800
     32 H32        -8.7493   -3.3107   60.4465 H       1  ZINC000046390957    0.0700
     33 H33       -10.4461   -3.6227   60.0087 H       1  ZINC000046390957    0.0600
     34 H34        -8.1276   -1.1391   61.4781 H       1  ZINC000046390957    0.1300
     35 H35        -8.8521    0.6168   63.0430 H       1  ZINC000046390957    0.1300
     36 H36       -11.2477    0.9638   63.4872 H       1  ZINC000046390957    0.1300
     37 H37       -13.7416    0.3390   61.7334 H       1  ZINC000046390957    0.0700
     38 H38       -13.8726   -1.3304   62.3370 H       1  ZINC000046390957    0.0600
     39 H39       -13.4717   -0.0076   63.4583 H       1  ZINC000046390957    0.0700
     40 H40       -12.6290   -3.2684   60.9975 H       1  ZINC000046390957    0.4100
     41 H41       -15.7447   -1.6359   59.5539 H       1  ZINC000046390957    0.0800
     42 H42       -15.1075   -1.1316   57.9702 H       1  ZINC000046390957    0.0800
     43 H43       -16.0864   -2.6121   58.1052 H       1  ZINC000046390957    0.0800
     44 H44       -14.4631   -5.4517   55.2380 H       1  ZINC000046390957    0.1200
     45 H45       -15.1258   -3.8001   55.2091 H       1  ZINC000046390957    0.1300
     46 H46       -11.5877   -4.7448   56.2605 H       1  ZINC000046390957    0.1800
     47 H47       -11.3801   -2.6594   51.2395 H       1  ZINC000046390957    0.1000
     48 H48       -12.6076   -1.5021   51.8071 H       1  ZINC000046390957    0.1000
     49 H49        -9.0006   -2.3681   51.9850 H       1  ZINC000046390957    0.1200
     50 H50        -7.2385   -0.6951   52.3845 H       1  ZINC000046390957    0.1200
     51 H51        -7.8470    1.6277   52.9297 H       1  ZINC000046390957    0.1200
     52 H52       -10.2176    2.2778   53.0747 H       1  ZINC000046390957    0.1200
     53 H53       -11.9796    0.6059   52.6707 H       1  ZINC000046390957    0.1200
@<TRIPOS>BOND
     1     1     2    1
     2     1    31    1
     3     1    32    1
     4     1    33    1
     5     2     8   ar
     6     2     3   ar
     7     3     4   ar
     8     3    34    1
     9     4     5   ar
    10     4    35    1
    11     5     6   ar
    12     5    36    1
    13     6     7    1
    14     6     8   ar
    15     7    37    1
    16     7    38    1
    17     7    39    1
    18     8     9    1
    19     9    10   am
    20     9    40    1
    21    10    11    2
    22    10    12    1
    23    12    13    1
    24    12    14    1
    25    12    15    1
    26    14    41    1
    27    14    42    1
    28    14    43    1
    29    15    16    1
    30    16    17    2
    31    16    18    1
    32    18    19    1
    33    18    44    1
    34    18    45    1
    35    19    30    1
    36    19    20    2
    37    20    21    1
    38    20    46    1
    39    21    22    1
    40    22    23    1
    41    22    30    2
    42    23    24    1
    43    23    47    1
    44    23    48    1
    45    24    29   ar
    46    24    25   ar
    47    25    26   ar
    48    25    49    1
    49    26    27   ar
    50    26    50    1
    51    27    28   ar
    52    27    51    1
    53    28    29   ar
    54    28    52    1
    55    29    53    1
@<TRIPOS>SUBSTRUCTURE
     1 ZINC000046390957        1 TEMP              0 ****  ****    0 ROOT


##########                                Name:    ZINC000512699033
##########                DOCK_Rotatable_Bonds:                   9
##########                         Heavy_Atoms:                  30
##########                    Molecular_Weight:              405.54
##########                DOCK_Rotatable_Bonds:                   9
##########                       Formal_Charge:           0.0199988
##########                     HBond_Acceptors:                   5
##########                        HBond_Donors:                   2
##########                         Heavy_Atoms:                  30
##########                          Grid_Score:          -37.112072
##########                     Grid_vdw_energy:          -36.081902
##########                      Grid_es_energy:           -1.030169
##########           Internal_energy_repulsive:           14.582214

@<TRIPOS>MOLECULE
ZINC000512699033
 61 64 1 0 0
SMALL
USER_CHARGES


@<TRIPOS>ATOM
      1 O1        -10.9704   -3.6900   53.3462 O.2     1  ZINC000512699033   -0.5100
      2 C2        -11.2393   -2.5402   53.6230 C.2     1  ZINC000512699033    0.5200
      3 C3        -10.4760   -1.4119   52.9787 C.3     1  ZINC000512699033   -0.1500
      4 C4        -11.4153   -0.2262   52.7490 C.3     1  ZINC000512699033    0.1300
      5 N5        -12.3328   -0.5358   51.6497 N.am    1  ZINC000512699033   -0.7300
      6 C6        -13.6242   -0.1571   51.7229 C.2     1  ZINC000512699033    0.5200
      7 O7        -14.0264    0.4412   52.6981 O.2     1  ZINC000512699033   -0.5300
      8 C8        -14.5685   -0.4772   50.5928 C.3     1  ZINC000512699033   -0.1100
      9 C9        -13.7688   -0.7005   49.3077 C.3     1  ZINC000512699033   -0.1100
     10 C10       -14.7276   -1.0255   48.1605 C.3     1  ZINC000512699033   -0.1200
     11 C11       -15.5154   -2.2929   48.4976 C.3     1  ZINC000512699033   -0.1200
     12 C12       -16.3151   -2.0696   49.7828 C.3     1  ZINC000512699033   -0.1200
     13 C13       -15.3564   -1.7447   50.9301 C.3     1  ZINC000512699033   -0.1000
     14 N14       -12.2244   -2.2714   54.5026 N.am    1  ZINC000512699033   -0.6600
     15 C15       -12.9332   -3.3192   55.1009 C.ar    1  ZINC000512699033    0.1700
     16 C16       -13.7048   -4.1712   54.3220 C.ar    1  ZINC000512699033   -0.1400
     17 C17       -14.4028   -5.2049   54.9155 C.ar    1  ZINC000512699033   -0.1000
     18 C18       -14.3341   -5.3913   56.2838 C.ar    1  ZINC000512699033   -0.1400
     19 C19       -13.5665   -4.5444   57.0624 C.ar    1  ZINC000512699033   -0.0900
     20 C20       -12.8617   -3.5127   56.4744 C.ar    1  ZINC000512699033   -0.1200
     21 C21       -12.0254   -2.5904   57.3235 C.3     1  ZINC000512699033    0.0900
     22 N22       -11.4073   -3.3554   58.4147 N.3     1  ZINC000512699033   -0.4700
     23 C23       -10.2245   -4.1024   57.9346 C.3     1  ZINC000512699033    0.0500
     24 C24        -9.3166   -4.1382   59.1853 C.3     1  ZINC000512699033   -0.0900
     25 C25        -9.7644   -2.9159   59.9616 C.ar    1  ZINC000512699033   -0.1400
     26 C26        -9.1772   -2.2268   61.0014 C.ar    1  ZINC000512699033   -0.0800
     27 C27        -9.8041   -1.1171   61.5396 C.ar    1  ZINC000512699033   -0.1400
     28 C28       -11.0210   -0.6999   61.0327 C.ar    1  ZINC000512699033   -0.0900
     29 C29       -11.6138   -1.3872   59.9938 C.ar    1  ZINC000512699033   -0.1400
     30 C30       -10.9901   -2.5077   59.4483 C.ar    1  ZINC000512699033    0.0900
     31 H31        -9.6585   -1.1065   53.6319 H       1  ZINC000512699033    0.1100
     32 H32       -10.0720   -1.7457   52.0228 H       1  ZINC000512699033    0.1000
     33 H33       -11.9874   -0.0348   53.6568 H       1  ZINC000512699033    0.0800
     34 H34       -10.8297    0.6575   52.4956 H       1  ZINC000512699033    0.0800
     35 H35       -12.0109   -1.0133   50.8692 H       1  ZINC000512699033    0.4000
     36 H36       -15.2600    0.3534   50.4509 H       1  ZINC000512699033    0.1000
     37 H37       -13.2076    0.2025   49.0675 H       1  ZINC000512699033    0.0700
     38 H38       -13.0775   -1.5310   49.4497 H       1  ZINC000512699033    0.0700
     39 H39       -15.4190   -0.1948   48.0185 H       1  ZINC000512699033    0.0600
     40 H40       -14.1580   -1.1845   47.2449 H       1  ZINC000512699033    0.0700
     41 H41       -16.1984   -2.5244   47.6803 H       1  ZINC000512699033    0.0600
     42 H42       -14.8239   -3.1235   48.6397 H       1  ZINC000512699033    0.0600
     43 H43       -17.0065   -1.2391   49.6409 H       1  ZINC000512699033    0.0600
     44 H44       -16.8763   -2.9727   50.0230 H       1  ZINC000512699033    0.0700
     45 H45       -14.6648   -2.5753   51.0720 H       1  ZINC000512699033    0.0700
     46 H46       -15.9260   -1.5856   51.8456 H       1  ZINC000512699033    0.0700
     47 H47       -12.4422   -1.3518   54.7208 H       1  ZINC000512699033    0.4200
     48 H48       -13.7594   -4.0256   53.2531 H       1  ZINC000512699033    0.1500
     49 H49       -15.0032   -5.8678   54.3102 H       1  ZINC000512699033    0.1300
     50 H50       -14.8814   -6.1998   56.7456 H       1  ZINC000512699033    0.1200
     51 H51       -13.5148   -4.6926   58.1309 H       1  ZINC000512699033    0.1200
     52 H52       -11.2462   -2.1383   56.7098 H       1  ZINC000512699033    0.0600
     53 H53       -12.6584   -1.8077   57.7416 H       1  ZINC000512699033    0.0900
     54 H54       -10.5021   -5.1113   57.6292 H       1  ZINC000512699033    0.1000
     55 H55        -9.7366   -3.5705   57.1178 H       1  ZINC000512699033    0.0600
     56 H56        -9.4899   -5.0467   59.7623 H       1  ZINC000512699033    0.0900
     57 H57        -8.2671   -4.0532   58.9032 H       1  ZINC000512699033    0.0800
     58 H58        -8.2267   -2.5538   61.3965 H       1  ZINC000512699033    0.1200
     59 H59        -9.3442   -0.5781   62.3546 H       1  ZINC000512699033    0.1300
     60 H60       -11.5093    0.1673   61.4519 H       1  ZINC000512699033    0.1300
     61 H61       -12.5646   -1.0563   59.6025 H       1  ZINC000512699033    0.1200
@<TRIPOS>BOND
     1     1     2    2
     2     2     3    1
     3     2    14   am
     4     3     4    1
     5     3    31    1
     6     3    32    1
     7     4     5    1
     8     4    33    1
     9     4    34    1
    10     5     6   am
    11     5    35    1
    12     6     7    2
    13     6     8    1
    14     8    13    1
    15     8     9    1
    16     8    36    1
    17     9    10    1
    18     9    37    1
    19     9    38    1
    20    10    11    1
    21    10    39    1
    22    10    40    1
    23    11    12    1
    24    11    41    1
    25    11    42    1
    26    12    13    1
    27    12    43    1
    28    12    44    1
    29    13    45    1
    30    13    46    1
    31    14    15    1
    32    14    47    1
    33    15    20   ar
    34    15    16   ar
    35    16    17   ar
    36    16    48    1
    37    17    18   ar
    38    17    49    1
    39    18    19   ar
    40    18    50    1
    41    19    20   ar
    42    19    51    1
    43    20    21    1
    44    21    22    1
    45    21    52    1
    46    21    53    1
    47    22    30    1
    48    22    23    1
    49    23    24    1
    50    23    54    1
    51    23    55    1
    52    24    25    1
    53    24    56    1
    54    24    57    1
    55    25    30   ar
    56    25    26   ar
    57    26    27   ar
    58    26    58    1
    59    27    28   ar
    60    27    59    1
    61    28    29   ar
    62    28    60    1
    63    29    30   ar
    64    29    61    1
@<TRIPOS>SUBSTRUCTURE
     1 ZINC000512699033        1 TEMP              0 ****  ****    0 ROOT


##########                                Name:    ZINC000428748914
##########                DOCK_Rotatable_Bonds:                  11
##########                         Heavy_Atoms:                  30
##########                    Molecular_Weight:             413.492
##########                DOCK_Rotatable_Bonds:                  11
##########                       Formal_Charge:           0.0199993
##########                     HBond_Acceptors:                   7
##########                        HBond_Donors:                   3
##########                         Heavy_Atoms:                  30
##########                          Grid_Score:          -37.074760
##########                     Grid_vdw_energy:          -36.572044
##########                      Grid_es_energy:           -0.502716
##########           Internal_energy_repulsive:           13.837848

@<TRIPOS>MOLECULE
ZINC000428748914
 58 61 1 0 0
SMALL
USER_CHARGES


@<TRIPOS>ATOM
      1 O1        -12.5929   -3.5700   55.9580 O.2     1  ZINC000428748914   -0.5900
      2 C2        -11.4064   -3.3423   55.8208 C.2     1  ZINC000428748914    0.7000
      3 N3        -10.7807   -3.6919   54.6794 N.am    1  ZINC000428748914   -0.7400
      4 C4        -11.5289   -4.3516   53.6064 C.3     1  ZINC000428748914    0.1900
      5 C5        -12.4432   -3.3532   52.9442 C.ar    1  ZINC000428748914   -0.2000
      6 C6        -13.8052   -3.3650   53.2108 C.ar    1  ZINC000428748914   -0.0200
      7 C7        -14.6091   -2.4305   52.5813 C.ar    1  ZINC000428748914   -0.1900
      8 C8        -14.0294   -1.5181   51.7094 C.ar    1  ZINC000428748914    0.3300
      9 O9        -14.8066   -0.5968   51.0865 O.3     1  ZINC000428748914   -0.3000
     10 C10       -14.1932    0.1778   50.0541 C.3     1  ZINC000428748914    0.0800
     11 C11       -14.0181   -0.6714   48.7706 C.3     1  ZINC000428748914   -0.1400
     12 C12       -13.9437    0.4030   47.6574 C.3     1  ZINC000428748914   -0.1200
     13 C13       -14.9628    1.4744   48.0970 C.3     1  ZINC000428748914   -0.1200
     14 C14       -15.1215    1.3312   49.6208 C.3     1  ZINC000428748914   -0.1200
     15 N15       -12.7267   -1.5385   51.4809 N.ar    1  ZINC000428748914   -0.5400
     16 C16       -11.9340   -2.4132   52.0702 C.ar    1  ZINC000428748914    0.1600
     17 N17       -10.7182   -2.7355   56.8079 N.am    1  ZINC000428748914   -0.7400
     18 C18       -11.3983   -2.3554   58.0486 C.3     1  ZINC000428748914    0.1800
     19 C19       -10.3881   -1.7311   59.0133 C.3     1  ZINC000428748914   -0.1300
     20 C20        -9.9704   -0.2945   58.6928 C.3     1  ZINC000428748914    0.1100
     21 O21        -9.1380   -0.2883   57.5312 O.3     1  ZINC000428748914   -0.5700
     22 C22        -9.3327   -2.6541   59.6258 C.3     1  ZINC000428748914   -0.1400
     23 C23       -10.4816   -2.1272   60.4881 C.3     1  ZINC000428748914   -0.1000
     24 H24       -11.2629   -2.8326   60.7711 H       1  ZINC000428748914    0.1200
     25 C25       -10.1547   -1.0731   61.5143 C.ar    1  ZINC000428748914   -0.0700
     26 C26       -11.0289   -0.0240   61.7295 C.ar    1  ZINC000428748914   -0.0900
     27 C27       -10.7301    0.9432   62.6703 C.ar    1  ZINC000428748914   -0.1500
     28 C28        -9.5549    0.8609   63.3978 C.ar    1  ZINC000428748914    0.1000
     29 F29        -9.2621    1.8056   64.3181 F       1  ZINC000428748914   -0.1400
     30 C30        -8.6804   -0.1905   63.1817 C.ar    1  ZINC000428748914   -0.1500
     31 C31        -8.9835   -1.1591   62.2437 C.ar    1  ZINC000428748914   -0.0800
     32 H32        -9.8351   -3.5068   54.5683 H       1  ZINC000428748914    0.4000
     33 H33       -10.8318   -4.7504   52.8694 H       1  ZINC000428748914    0.0800
     34 H34       -12.1213   -5.1657   54.0239 H       1  ZINC000428748914    0.0800
     35 H35       -14.2281   -4.0870   53.8936 H       1  ZINC000428748914    0.1400
     36 H36       -15.6732   -2.4113   52.7654 H       1  ZINC000428748914    0.1400
     37 H37       -13.2323    0.5672   50.3903 H       1  ZINC000428748914    0.1000
     38 H38       -13.0946   -1.2489   48.8125 H       1  ZINC000428748914    0.0700
     39 H39       -14.8772   -1.3251   48.6197 H       1  ZINC000428748914    0.0800
     40 H40       -12.9416    0.8286   47.6044 H       1  ZINC000428748914    0.0700
     41 H41       -14.2294   -0.0236   46.6959 H       1  ZINC000428748914    0.0700
     42 H42       -14.5885    2.4684   47.8523 H       1  ZINC000428748914    0.0700
     43 H43       -15.9200    1.3037   47.6042 H       1  ZINC000428748914    0.0700
     44 H44       -16.1557    1.0910   49.8676 H       1  ZINC000428748914    0.0800
     45 H45       -14.8242    2.2558   50.1157 H       1  ZINC000428748914    0.0700
     46 H46       -10.8749   -2.3997   51.8595 H       1  ZINC000428748914    0.1600
     47 H47        -9.7725   -2.5503   56.6969 H       1  ZINC000428748914    0.3900
     48 H48       -12.1829   -1.6324   57.8260 H       1  ZINC000428748914    0.0700
     49 H49       -11.8393   -3.2406   58.5070 H       1  ZINC000428748914    0.0900
     50 H50       -10.8587    0.3091   58.5065 H       1  ZINC000428748914    0.0500
     51 H51        -9.4196    0.1206   59.5367 H       1  ZINC000428748914    0.0600
     52 H52        -9.5768   -0.6082   56.7312 H       1  ZINC000428748914    0.3800
     53 H53        -9.3582   -3.7061   59.3417 H       1  ZINC000428748914    0.1100
     54 H54        -8.3405   -2.2380   59.8006 H       1  ZINC000428748914    0.1100
     55 H55       -11.9455    0.0399   61.1619 H       1  ZINC000428748914    0.1400
     56 H56       -11.4129    1.7630   62.8378 H       1  ZINC000428748914    0.1400
     57 H57        -7.7632   -0.2555   63.7484 H       1  ZINC000428748914    0.1400
     58 H58        -8.3017   -1.9795   62.0753 H       1  ZINC000428748914    0.1300
@<TRIPOS>BOND
     1     1     2    2
     2     2     3   am
     3     2    17   am
     4     3     4    1
     5     3    32    1
     6     4     5    1
     7     4    33    1
     8     4    34    1
     9     5    16   ar
    10     5     6   ar
    11     6     7   ar
    12     6    35    1
    13     7     8   ar
    14     7    36    1
    15     8     9    1
    16     8    15   ar
    17     9    10    1
    18    10    14    1
    19    10    11    1
    20    10    37    1
    21    11    12    1
    22    11    38    1
    23    11    39    1
    24    12    13    1
    25    12    40    1
    26    12    41    1
    27    13    14    1
    28    13    42    1
    29    13    43    1
    30    14    44    1
    31    14    45    1
    32    15    16   ar
    33    16    46    1
    34    17    18    1
    35    17    47    1
    36    18    19    1
    37    18    48    1
    38    18    49    1
    39    19    23    1
    40    19    20    1
    41    19    22    1
    42    20    21    1
    43    20    50    1
    44    20    51    1
    45    21    52    1
    46    22    23    1
    47    22    53    1
    48    22    54    1
    49    23    24    1
    50    23    25    1
    51    25    31   ar
    52    25    26   ar
    53    26    27   ar
    54    26    55    1
    55    27    28   ar
    56    27    56    1
    57    28    29    1
    58    28    30   ar
    59    30    31   ar
    60    30    57    1
    61    31    58    1
@<TRIPOS>SUBSTRUCTURE
     1 ZINC000428748914        1 TEMP              0 ****  ****    0 ROOT


##########                                Name:     oleObject27.pdb
##########                DOCK_Rotatable_Bonds:                   9
##########                         Heavy_Atoms:                  35
##########                    Molecular_Weight:             513.466
##########                DOCK_Rotatable_Bonds:                   9
##########                       Formal_Charge:         0.000199873
##########                     HBond_Acceptors:                   8
##########                        HBond_Donors:                   1
##########                         Heavy_Atoms:                  35
##########                          Grid_Score:          -37.070702
##########                     Grid_vdw_energy:          -36.739815
##########                      Grid_es_energy:           -0.330889
##########           Internal_energy_repulsive:           17.928654

@<TRIPOS>MOLECULE
oleObject27.pdb
 65 68 1 0 0
SMALL
NO_CHARGES


@<TRIPOS>ATOM
      1 C         -11.5631    3.2227   49.2304 C.ar    1  UNL        -0.0620
      2 C         -11.7338    2.9567   50.5967 C.ar    1  UNL        -0.0590
      3 C         -12.6881    2.0172   51.0333 C.ar    1  UNL        -0.0456
      4 C         -13.4799    1.3274   50.0817 C.ar    1  UNL        -0.0187
      5 C         -13.3042    1.6141   48.7101 C.ar    1  UNL        -0.0565
      6 C         -12.3519    2.5527   48.2863 C.ar    1  UNL        -0.0619
      7 C         -14.5297    0.2943   50.5209 C.3     1  UNL         0.0921
      8 C         -15.2435   -0.3631   49.3355 C.ar    1  UNL         0.0681
      9 C         -16.5776   -0.0381   48.9833 C.ar    1  UNL        -0.0272
     10 C         -17.1590   -0.7009   47.8860 C.ar    1  UNL        -0.0559
     11 C         -16.4083   -1.6598   47.1904 C.ar    1  UNL        -0.0435
     12 C         -15.1001   -1.9301   47.6189 C.ar    1  UNL         0.0272
     13 N         -14.5348   -1.3016   48.6666 N.ar    1  UNL        -0.2587
     14 C         -17.3981    0.9876   49.7570 C.3     1  UNL        -0.0379
     15 N         -13.9820   -0.7324   51.4193 N.am    1  UNL        -0.2865
     16 C         -14.5077   -1.0321   52.6631 C.2     1  UNL         0.3014
     17 O         -15.4808   -0.4467   53.1083 O.2     1  UNL        -0.2541
     18 N         -13.8471   -2.0397   53.3686 N.am    1  UNL        -0.2833
     19 C         -12.6568   -2.7451   52.8199 C.3     1  UNL         0.0284
     20 C         -12.2794   -4.0563   53.5514 C.3     1  UNL         0.0142
     21 N         -12.2911   -3.9088   55.0172 N.4     1  UNL        -0.2979
     22 C         -13.6392   -3.4963   55.4549 C.3     1  UNL         0.0142
     23 C         -14.0685   -2.1482   54.8316 C.3     1  UNL         0.0284
     24 C         -11.1673   -3.0868   55.5273 C.3     1  UNL         0.0223
     25 C         -11.3076   -2.7230   57.0192 C.3     1  UNL         0.0661
     26 O         -10.0460   -2.1888   57.4573 O.3     1  UNL        -0.3432
     27 C          -9.8261   -1.6898   58.7268 C.ar    1  UNL         0.0937
     28 C         -10.2147   -0.3840   59.0955 C.ar    1  UNL        -0.0288
     29 C          -9.9723    0.0843   60.3977 C.ar    1  UNL        -0.0408
     30 C          -9.3421   -0.7461   61.3378 C.ar    1  UNL         0.0422
     31 C          -8.9531   -2.0460   60.9790 C.ar    1  UNL        -0.0221
     32 C          -9.1942   -2.5172   59.6777 C.ar    1  UNL         0.0723
     33 CL         -8.6954   -4.1462   59.2614 Cl      1  UNL        -0.0814
     34 CL         -9.0416   -0.1595   62.9597 Cl      1  UNL        -0.0843
     35 C         -12.8442    1.7781   52.5314 C.3     1  UNL        -0.0394
     36 H         -10.8253    3.9505   48.9052 H       1  UNL         0.0623
     37 H         -11.1211    3.4874   51.3199 H       1  UNL         0.0626
     38 H         -13.9125    1.1138   47.9624 H       1  UNL         0.0627
     39 H         -12.2280    2.7612   47.2277 H       1  UNL         0.0623
     40 H         -15.2773    0.8350   51.1086 H       1  UNL         0.0625
     41 H         -18.1775   -0.4805   47.5790 H       1  UNL         0.0627
     42 H         -16.8324   -2.1870   46.3410 H       1  UNL         0.0639
     43 H         -14.4859   -2.6714   47.1093 H       1  UNL         0.0840
     44 H         -17.4110    0.7560   50.8295 H       1  UNL         0.0280
     45 H         -18.4408    1.0120   49.4162 H       1  UNL         0.0280
     46 H         -16.9873    1.9969   49.6313 H       1  UNL         0.0280
     47 H         -13.1465   -1.2194   51.1271 H       1  UNL         0.1521
     48 H         -11.8045   -2.0551   52.8648 H       1  UNL         0.0484
     49 H         -12.8263   -2.9962   51.7656 H       1  UNL         0.0484
     50 H         -11.2935   -4.3958   53.2090 H       1  UNL         0.0447
     51 H         -13.0051   -4.8291   53.2661 H       1  UNL         0.0447
     52 H         -13.6995   -3.4327   56.5476 H       1  UNL         0.0447
     53 H         -14.3619   -4.2612   55.1421 H       1  UNL         0.0447
     54 H         -13.5130   -1.3369   55.3187 H       1  UNL         0.0484
     55 H         -15.1331   -1.9943   55.0500 H       1  UNL         0.0484
     56 H         -11.0721   -2.1613   54.9456 H       1  UNL         0.0455
     57 H         -10.2311   -3.6469   55.4061 H       1  UNL         0.0455
     58 H         -11.5609   -3.6232   57.5936 H       1  UNL         0.0586
     59 H         -12.0980   -1.9745   57.1532 H       1  UNL         0.0586
     60 H         -10.7037    0.2747   58.3853 H       1  UNL         0.0652
     61 H         -10.2733    1.0903   60.6765 H       1  UNL         0.0639
     62 H          -8.4655   -2.6879   61.7073 H       1  UNL         0.0655
     63 H         -12.2258    2.4677   53.1192 H       1  UNL         0.0280
     64 H         -12.5432    0.7582   52.8013 H       1  UNL         0.0280
     65 H         -13.8839    1.9243   52.8492 H       1  UNL         0.0280
@<TRIPOS>BOND
     1     1     2   ar
     2     1     6   ar
     3     1    36    1
     4     2     3   ar
     5     2    37    1
     6     3     4   ar
     7     3    35    1
     8     4     5   ar
     9     4     7    1
    10     5     6   ar
    11     5    38    1
    12     6    39    1
    13     7     8    1
    14     7    15    1
    15     7    40    1
    16     8     9   ar
    17     8    13   ar
    18     9    10   ar
    19     9    14    1
    20    10    11   ar
    21    10    41    1
    22    11    12   ar
    23    11    42    1
    24    12    13   ar
    25    12    43    1
    26    14    44    1
    27    14    45    1
    28    14    46    1
    29    15    16   am
    30    15    47    1
    31    16    17    2
    32    16    18   am
    33    18    19    1
    34    18    23    1
    35    19    20    1
    36    19    48    1
    37    19    49    1
    38    20    21    1
    39    20    50    1
    40    20    51    1
    41    21    22    1
    42    21    24    1
    43    22    23    1
    44    22    52    1
    45    22    53    1
    46    23    54    1
    47    23    55    1
    48    24    25    1
    49    24    56    1
    50    24    57    1
    51    25    26    1
    52    25    58    1
    53    25    59    1
    54    26    27    1
    55    27    28   ar
    56    27    32   ar
    57    28    29   ar
    58    28    60    1
    59    29    30   ar
    60    29    61    1
    61    30    31   ar
    62    30    34    1
    63    31    32   ar
    64    31    62    1
    65    32    33    1
    66    35    63    1
    67    35    64    1
    68    35    65    1
@<TRIPOS>SUBSTRUCTURE
     1 UNL         1 TEMP              0 ****  ****    0 ROOT


##########                                Name:    ZINC000182044395
##########                DOCK_Rotatable_Bonds:                   8
##########                         Heavy_Atoms:                  28
##########                    Molecular_Weight:             398.889
##########                DOCK_Rotatable_Bonds:                   8
##########                       Formal_Charge:          -0.0399999
##########                     HBond_Acceptors:                   6
##########                        HBond_Donors:                   2
##########                         Heavy_Atoms:                  28
##########                          Grid_Score:          -37.070000
##########                     Grid_vdw_energy:          -34.882271
##########                      Grid_es_energy:           -2.187727
##########           Internal_energy_repulsive:           17.571140

@<TRIPOS>MOLECULE
ZINC000182044395
 51 53 1 0 0
SMALL
USER_CHARGES


@<TRIPOS>ATOM
      1 C1         -8.6096   -3.5988   60.0853 C.3     1  ZINC000182044395   -0.1800
      2 C2         -9.1774   -2.3933   59.3334 C.3     1  ZINC000182044395    0.0800
      3 N3        -10.5042   -2.0682   59.8627 N.pl3   1  ZINC000182044395   -0.4800
      4 C4        -11.5820   -2.5588   59.2368 C.2     1  ZINC000182044395    0.2500
      5 C5        -12.8656   -2.3001   59.6709 C.2     1  ZINC000182044395   -0.3500
      6 C6        -14.0237   -2.8584   58.9556 C.2     1  ZINC000182044395    0.5900
      7 O7        -14.6597   -3.7716   59.4469 O.2     1  ZINC000182044395   -0.5600
      8 N8        -14.3800   -2.3581   57.7558 N.am    1  ZINC000182044395   -0.7200
      9 C9        -15.5332   -2.9141   57.0435 C.3     1  ZINC000182044395    0.1100
     10 H10       -15.5578   -3.9952   57.1800 H       1  ZINC000182044395    0.0900
     11 C11       -16.8199   -2.3004   57.5988 C.3     1  ZINC000182044395   -0.1600
     12 C12       -15.4159   -2.5908   55.5526 C.3     1  ZINC000182044395    0.1100
     13 H13       -16.3941   -2.3072   55.1644 H       1  ZINC000182044395    0.1100
     14 O14       -14.4993   -1.5098   55.3703 O.3     1  ZINC000182044395   -0.5500
     15 C15       -14.9070   -3.8231   54.8020 C.3     1  ZINC000182044395   -0.1100
     16 C16       -13.5105   -3.5635   54.2987 C.ar    1  ZINC000182044395   -0.0800
     17 C17       -12.4312   -3.7054   55.1507 C.ar    1  ZINC000182044395   -0.1000
     18 C18       -11.1502   -3.4669   54.6891 C.ar    1  ZINC000182044395   -0.1200
     19 C19       -10.9484   -3.0874   53.3753 C.ar    1  ZINC000182044395   -0.1200
     20 C20       -12.0281   -2.9408   52.5246 C.ar    1  ZINC000182044395   -0.1200
     21 C21       -13.3088   -3.1831   52.9851 C.ar    1  ZINC000182044395   -0.1200
     22 C22       -13.0576   -1.4515   60.8576 C.2     1  ZINC000182044395    0.4400
     23 O23       -14.1710   -1.1894   61.2774 O.2     1  ZINC000182044395   -0.4900
     24 C24       -11.8450   -0.9362   61.5205 C.ar    1  ZINC000182044395   -0.1800
     25 C25       -11.9307   -0.1288   62.6543 C.ar    1  ZINC000182044395   -0.0200
     26 C26       -10.7767    0.3406   63.2446 C.ar    1  ZINC000182044395   -0.0700
     27 Cl27      -10.8751    1.3466   64.6561 Cl      1  ZINC000182044395   -0.0500
     28 C28        -9.5359    0.0116   62.7152 C.ar    1  ZINC000182044395   -0.0500
     29 C29        -9.4376   -0.7856   61.5959 C.ar    1  ZINC000182044395   -0.1600
     30 C30       -10.5902   -1.2703   60.9833 C.ar    1  ZINC000182044395    0.1900
     31 H31        -9.2727   -4.4540   59.9543 H       1  ZINC000182044395    0.0700
     32 H32        -7.6224   -3.8407   59.6915 H       1  ZINC000182044395    0.0800
     33 H33        -8.5293   -3.3605   61.1459 H       1  ZINC000182044395    0.0700
     34 H34        -9.2578   -2.6317   58.2727 H       1  ZINC000182044395    0.1000
     35 H35        -8.5144   -1.5381   59.4644 H       1  ZINC000182044395    0.1100
     36 H36       -11.4415   -3.1780   58.3631 H       1  ZINC000182044395    0.1800
     37 H37       -13.8729   -1.6300   57.3641 H       1  ZINC000182044395    0.4100
     38 H38       -16.9034   -2.5307   58.6609 H       1  ZINC000182044395    0.0600
     39 H39       -16.7953   -1.2193   57.4622 H       1  ZINC000182044395    0.0600
     40 H40       -17.6779   -2.7140   57.0687 H       1  ZINC000182044395    0.0600
     41 H41       -14.1814   -1.4126   54.4622 H       1  ZINC000182044395    0.3700
     42 H42       -15.5646   -4.0317   53.9580 H       1  ZINC000182044395    0.0800
     43 H43       -14.8971   -4.6802   55.4754 H       1  ZINC000182044395    0.0800
     44 H44       -12.5888   -4.0023   56.1770 H       1  ZINC000182044395    0.1200
     45 H45       -10.3071   -3.5774   55.3549 H       1  ZINC000182044395    0.1200
     46 H46        -9.9476   -2.9010   53.0147 H       1  ZINC000182044395    0.1200
     47 H47       -11.8709   -2.6399   51.4993 H       1  ZINC000182044395    0.1200
     48 H48       -14.1521   -3.0720   52.3195 H       1  ZINC000182044395    0.1200
     49 H49       -12.8952    0.1272   63.0674 H       1  ZINC000182044395    0.1500
     50 H50        -8.6383    0.3842   63.1862 H       1  ZINC000182044395    0.1500
     51 H51        -8.4667   -1.0346   61.1939 H       1  ZINC000182044395    0.1500
@<TRIPOS>BOND
     1     1     2    1
     2     1    31    1
     3     1    32    1
     4     1    33    1
     5     2     3    1
     6     2    34    1
     7     2    35    1
     8     3    30    1
     9     3     4    1
    10     4     5    2
    11     4    36    1
    12     5     6    1
    13     5    22    1
    14     6     7    2
    15     6     8   am
    16     8     9    1
    17     8    37    1
    18     9    10    1
    19     9    11    1
    20     9    12    1
    21    11    38    1
    22    11    39    1
    23    11    40    1
    24    12    13    1
    25    12    14    1
    26    12    15    1
    27    14    41    1
    28    15    16    1
    29    15    42    1
    30    15    43    1
    31    16    21   ar
    32    16    17   ar
    33    17    18   ar
    34    17    44    1
    35    18    19   ar
    36    18    45    1
    37    19    20   ar
    38    19    46    1
    39    20    21   ar
    40    20    47    1
    41    21    48    1
    42    22    23    2
    43    22    24    1
    44    24    30   ar
    45    24    25   ar
    46    25    26   ar
    47    25    49    1
    48    26    27    1
    49    26    28   ar
    50    28    29   ar
    51    28    50    1
    52    29    30   ar
    53    29    51    1
@<TRIPOS>SUBSTRUCTURE
     1 ZINC000182044395        1 TEMP              0 ****  ****    0 ROOT


##########                                Name:    ZINC000824084043
##########                DOCK_Rotatable_Bonds:                  11
##########                         Heavy_Atoms:                  27
##########                    Molecular_Weight:             382.547
##########                DOCK_Rotatable_Bonds:                  11
##########                       Formal_Charge:        -6.85453e-07
##########                     HBond_Acceptors:                   7
##########                        HBond_Donors:                   3
##########                         Heavy_Atoms:                  27
##########                          Grid_Score:          -37.026001
##########                     Grid_vdw_energy:          -33.364021
##########                      Grid_es_energy:           -3.661982
##########           Internal_energy_repulsive:           19.479099

@<TRIPOS>MOLECULE
ZINC000824084043
 65 66 1 0 0
SMALL
USER_CHARGES


@<TRIPOS>ATOM
      1 C1        -15.7632   -2.3796   55.3600 C.3     1  ZINC000824084043   -0.1400
      2 C2        -14.9339   -2.8799   54.1756 C.3     1  ZINC000824084043   -0.1000
      3 C3        -15.3616   -2.1418   52.9055 C.3     1  ZINC000824084043   -0.1300
      4 C4        -13.4508   -2.6161   54.4438 C.3     1  ZINC000824084043    0.1700
      5 H5        -13.2997   -1.5540   54.6364 H       1  ZINC000824084043    0.0700
      6 C6        -13.0013   -3.4245   55.6626 C.3     1  ZINC000824084043   -0.1400
      7 C7        -11.4788   -3.5746   55.6416 C.3     1  ZINC000824084043    0.1300
      8 N8        -10.9948   -3.8314   57.0004 N.am    1  ZINC000824084043   -0.6200
      9 C9        -11.0037   -5.1951   57.5357 C.3     1  ZINC000824084043    0.0800
     10 C10       -10.5413   -2.8131   57.7578 C.2     1  ZINC000824084043    0.7000
     11 O11       -10.5324   -1.6815   57.3131 O.2     1  ZINC000824084043   -0.5800
     12 N12       -10.0975   -3.0491   59.0084 N.am    1  ZINC000824084043   -0.7500
     13 C13        -9.6061   -1.9420   59.8325 C.3     1  ZINC000824084043    0.1600
     14 C14       -10.7718   -1.0176   60.1959 C.3     1  ZINC000824084043   -0.1600
     15 C15       -10.2666    0.0914   61.1214 C.3     1  ZINC000824084043   -0.0100
     16 N16        -9.7109   -0.5016   62.3437 N.4     1  ZINC000824084043   -0.3800
     17 H17       -10.4139   -1.0719   62.7892 H       1  ZINC000824084043    0.4200
     18 C18        -9.2971    0.5687   63.2610 C.3     1  ZINC000824084043    0.0000
     19 C19       -10.4842    0.9784   64.1351 C.3     1  ZINC000824084043   -0.1200
     20 C20       -10.0022    1.3742   65.5529 C.3     1  ZINC000824084043   -0.1400
     21 C21       -11.1420    2.2938   66.0570 C.3     1  ZINC000824084043   -0.1200
     22 C22       -11.5591    3.0985   64.8086 C.3     1  ZINC000824084043   -0.1300
     23 C23       -11.1408    2.2621   63.5866 C.3     1  ZINC000824084043   -0.1100
     24 C24        -8.5480   -1.3327   62.0099 C.3     1  ZINC000824084043    0.0000
     25 C25        -8.9870   -2.4965   61.1186 C.3     1  ZINC000824084043   -0.1600
     26 N26       -12.6642   -3.0171   53.2747 N.am    1  ZINC000824084043   -0.7800
     27 C27       -12.0706   -2.0806   52.5085 C.2     1  ZINC000824084043    0.6600
     28 O28       -11.4127   -2.4155   51.5333 O.co2   1  ZINC000824084043   -0.7200
     29 O29       -12.1898   -0.8960   52.7884 O.co2   1  ZINC000824084043   -0.7300
     30 H30       -16.8197   -2.5676   55.1688 H       1  ZINC000824084043    0.0500
     31 H31       -15.4585   -2.9055   56.2648 H       1  ZINC000824084043    0.0500
     32 H32       -15.6022   -1.3095   55.4900 H       1  ZINC000824084043    0.0500
     33 H33       -15.0948   -3.9501   54.0455 H       1  ZINC000824084043    0.0500
     34 H34       -15.2006   -1.0717   53.0355 H       1  ZINC000824084043    0.0600
     35 H35       -14.7708   -2.4982   52.0617 H       1  ZINC000824084043    0.0700
     36 H36       -16.4181   -2.3297   52.7144 H       1  ZINC000824084043    0.0300
     37 H37       -13.3029   -2.9070   56.5732 H       1  ZINC000824084043    0.0700
     38 H38       -13.4641   -4.4110   55.6351 H       1  ZINC000824084043    0.0600
     39 H39       -11.2048   -4.4079   54.9948 H       1  ZINC000824084043    0.0900
     40 H40       -11.0285   -2.6571   55.2629 H       1  ZINC000824084043    0.0900
     41 H41       -10.0576   -5.6833   57.3022 H       1  ZINC000824084043    0.0600
     42 H42       -11.1375   -5.1602   58.6168 H       1  ZINC000824084043    0.0600
     43 H43       -11.8229   -5.7564   57.0862 H       1  ZINC000824084043    0.0800
     44 H44       -10.1034   -3.9521   59.3628 H       1  ZINC000824084043    0.4000
     45 H45        -8.8538   -1.3810   59.2781 H       1  ZINC000824084043    0.1100
     46 H46       -11.1823   -0.5754   59.2882 H       1  ZINC000824084043    0.1200
     47 H47       -11.5463   -1.5915   60.7046 H       1  ZINC000824084043    0.0900
     48 H48        -9.4923    0.6647   60.6117 H       1  ZINC000824084043    0.1300
     49 H49       -11.0940    0.7515   61.3820 H       1  ZINC000824084043    0.1300
     50 H50        -8.4857    0.2106   63.8946 H       1  ZINC000824084043    0.1300
     51 H51        -8.9559    1.4290   62.6852 H       1  ZINC000824084043    0.1300
     52 H52       -11.2135    0.1701   64.1897 H       1  ZINC000824084043    0.1000
     53 H53        -9.9066    0.4937   66.1882 H       1  ZINC000824084043    0.0700
     54 H54        -9.0597    1.9195   65.5022 H       1  ZINC000824084043    0.0800
     55 H55       -11.9781    1.6987   66.4242 H       1  ZINC000824084043    0.0700
     56 H56       -10.7765    2.9619   66.8368 H       1  ZINC000824084043    0.0800
     57 H57       -12.6385    3.2500   64.8056 H       1  ZINC000824084043    0.0700
     58 H58       -11.0465    4.0603   64.7959 H       1  ZINC000824084043    0.0700
     59 H59       -10.4252    2.8180   62.9809 H       1  ZINC000824084043    0.0700
     60 H60       -12.0172    2.0077   62.9906 H       1  ZINC000824084043    0.0800
     61 H61        -7.8102   -0.7290   61.4813 H       1  ZINC000824084043    0.1300
     62 H62        -8.1065   -1.7239   62.9264 H       1  ZINC000824084043    0.1300
     63 H63        -9.7245   -3.1010   61.6465 H       1  ZINC000824084043    0.0900
     64 H64        -8.1218   -3.1113   60.8705 H       1  ZINC000824084043    0.1200
     65 H65       -12.5709   -3.9566   53.0520 H       1  ZINC000824084043    0.3600
@<TRIPOS>BOND
     1     1     2    1
     2     1    30    1
     3     1    31    1
     4     1    32    1
     5     2     3    1
     6     2     4    1
     7     2    33    1
     8     3    34    1
     9     3    35    1
    10     3    36    1
    11     4     5    1
    12     4     6    1
    13     4    26    1
    14     6     7    1
    15     6    37    1
    16     6    38    1
    17     7     8    1
    18     7    39    1
    19     7    40    1
    20     8     9    1
    21     8    10   am
    22     9    41    1
    23     9    42    1
    24     9    43    1
    25    10    11    2
    26    10    12   am
    27    12    13    1
    28    12    44    1
    29    13    25    1
    30    13    14    1
    31    13    45    1
    32    14    15    1
    33    14    46    1
    34    14    47    1
    35    15    16    1
    36    15    48    1
    37    15    49    1
    38    16    17    1
    39    16    18    1
    40    16    24    1
    41    18    19    1
    42    18    50    1
    43    18    51    1
    44    19    23    1
    45    19    20    1
    46    19    52    1
    47    20    21    1
    48    20    53    1
    49    20    54    1
    50    21    22    1
    51    21    55    1
    52    21    56    1
    53    22    23    1
    54    22    57    1
    55    22    58    1
    56    23    59    1
    57    23    60    1
    58    24    25    1
    59    24    61    1
    60    24    62    1
    61    25    63    1
    62    25    64    1
    63    26    27   am
    64    26    65    1
    65    27    28   ar
    66    27    29   ar
@<TRIPOS>SUBSTRUCTURE
     1 ZINC000824084043        1 TEMP              0 ****  ****    0 ROOT


##########                                Name:    ZINC001461256440
##########                DOCK_Rotatable_Bonds:                  13
##########                         Heavy_Atoms:                  26
##########                    Molecular_Weight:             367.445
##########                DOCK_Rotatable_Bonds:                  13
##########                       Formal_Charge:        -6.37025e-07
##########                     HBond_Acceptors:                   8
##########                        HBond_Donors:                   1
##########                         Heavy_Atoms:                  26
##########                          Grid_Score:          -37.018780
##########                     Grid_vdw_energy:          -36.306652
##########                      Grid_es_energy:           -0.712129
##########           Internal_energy_repulsive:           20.746239

@<TRIPOS>MOLECULE
ZINC001461256440
 55 55 1 0 0
SMALL
USER_CHARGES


@<TRIPOS>ATOM
      1 C1         -7.9710    1.9908   57.3008 C.3     1  ZINC001461256440   -0.1500
      2 C2         -8.6457    0.6288   57.1245 C.3     1  ZINC001461256440    0.0600
      3 O3         -8.6125   -0.0942   58.3833 O.3     1  ZINC001461256440   -0.3600
      4 C4         -9.3749   -1.1952   58.4739 C.2     1  ZINC001461256440    0.4400
      5 O5        -10.0075   -1.5724   57.5161 O.2     1  ZINC001461256440   -0.4800
      6 C6         -9.4418   -1.9608   59.7702 C.3     1  ZINC001461256440    0.1400
      7 N7        -10.1269   -1.1511   60.7807 N.pl3   1  ZINC001461256440   -0.3800
      8 N8         -9.5255   -0.5168   61.8751 N.2     1  ZINC001461256440   -0.2800
      9 C9        -10.4548    0.1099   62.5504 C.2     1  ZINC001461256440    0.1000
     10 C10       -10.2403    0.9219   63.8016 C.3     1  ZINC001461256440   -0.0700
     11 C11       -11.6799   -0.1017   61.9122 C.2     1  ZINC001461256440   -0.2700
     12 C12       -11.4514   -0.8791   60.8186 C.2     1  ZINC001461256440    0.3100
     13 N13       -12.4100   -1.3218   59.9074 N.am    1  ZINC001461256440   -0.6500
     14 C14       -13.2896   -2.2780   60.2657 C.2     1  ZINC001461256440    0.5200
     15 O15       -13.2484   -2.7526   61.3811 O.2     1  ZINC001461256440   -0.5000
     16 C16       -14.3242   -2.7575   59.2805 C.3     1  ZINC001461256440   -0.1300
     17 C17       -13.6685   -2.9683   57.9144 C.3     1  ZINC001461256440   -0.1100
     18 C18       -14.4290   -4.0503   57.1451 C.3     1  ZINC001461256440   -0.1100
     19 C19       -13.4567   -4.8141   56.2438 C.3     1  ZINC001461256440   -0.1200
     20 C20       -12.5463   -3.8373   55.5453 C.2     1  ZINC001461256440    0.4600
     21 O21       -11.3610   -3.8428   55.7790 O.2     1  ZINC001461256440   -0.5000
     22 O22       -13.0525   -2.9609   54.6634 O.3     1  ZINC001461256440   -0.3500
     23 C23       -12.3603   -2.8291   53.3938 C.3     1  ZINC001461256440    0.1200
     24 C24       -11.0980   -1.9862   53.5863 C.3     1  ZINC001461256440   -0.1800
     25 C25       -11.9735   -4.2163   52.8773 C.3     1  ZINC001461256440   -0.1400
     26 C26       -13.2802   -2.1457   52.3801 C.3     1  ZINC001461256440   -0.1800
     27 H27        -7.9959    2.5335   56.3559 H       1  ZINC001461256440    0.0800
     28 H28        -8.5008    2.5628   58.0625 H       1  ZINC001461256440    0.0700
     29 H29        -6.9357    1.8461   57.6096 H       1  ZINC001461256440    0.0700
     30 H30        -9.6810    0.7735   56.8158 H       1  ZINC001461256440    0.0700
     31 H31        -8.1159    0.0568   56.3629 H       1  ZINC001461256440    0.0700
     32 H32        -9.9906   -2.8898   59.6156 H       1  ZINC001461256440    0.1300
     33 H33        -8.4316   -2.1881   60.1105 H       1  ZINC001461256440    0.1400
     34 H34       -10.0364    1.9581   63.5319 H       1  ZINC001461256440    0.0800
     35 H35       -11.1356    0.8772   64.4216 H       1  ZINC001461256440    0.0800
     36 H36        -9.3936    0.5176   64.3565 H       1  ZINC001461256440    0.0700
     37 H37       -12.6372    0.2856   62.2286 H       1  ZINC001461256440    0.1800
     38 H38       -12.4437   -0.9413   59.0157 H       1  ZINC001461256440    0.4100
     39 H39       -14.7487   -3.6991   59.6290 H       1  ZINC001461256440    0.1000
     40 H40       -15.1153   -2.0128   59.1929 H       1  ZINC001461256440    0.1000
     41 H41       -13.6948   -2.0356   57.3510 H       1  ZINC001461256440    0.0800
     42 H42       -12.6333   -3.2803   58.0525 H       1  ZINC001461256440    0.0800
     43 H43       -14.8899   -4.7417   57.8506 H       1  ZINC001461256440    0.0700
     44 H44       -15.2025   -3.5858   56.5337 H       1  ZINC001461256440    0.0700
     45 H45       -12.8608   -5.4974   56.8489 H       1  ZINC001461256440    0.1100
     46 H46       -14.0185   -5.3816   55.5019 H       1  ZINC001461256440    0.1100
     47 H47       -10.4427   -2.4731   54.3085 H       1  ZINC001461256440    0.0600
     48 H48       -10.5784   -1.8872   52.6332 H       1  ZINC001461256440    0.0700
     49 H49       -11.3735   -0.9979   53.9543 H       1  ZINC001461256440    0.0800
     50 H50       -12.8728   -4.8167   52.7402 H       1  ZINC001461256440    0.0700
     51 H51       -11.4540   -4.1173   51.9243 H       1  ZINC001461256440    0.0800
     52 H52       -11.3182   -4.7032   53.5996 H       1  ZINC001461256440    0.0700
     53 H53       -13.5557   -1.1573   52.7481 H       1  ZINC001461256440    0.0800
     54 H54       -12.7606   -2.0467   51.4271 H       1  ZINC001461256440    0.0700
     55 H55       -14.1795   -2.7460   52.2430 H       1  ZINC001461256440    0.0600
@<TRIPOS>BOND
     1     1     2    1
     2     1    27    1
     3     1    28    1
     4     1    29    1
     5     2     3    1
     6     2    30    1
     7     2    31    1
     8     3     4    1
     9     4     5    2
    10     4     6    1
    11     6     7    1
    12     6    32    1
    13     6    33    1
    14     7    12    1
    15     7     8    1
    16     8     9    2
    17     9    10    1
    18     9    11    1
    19    10    34    1
    20    10    35    1
    21    10    36    1
    22    11    12    2
    23    11    37    1
    24    12    13    1
    25    13    14   am
    26    13    38    1
    27    14    15    2
    28    14    16    1
    29    16    17    1
    30    16    39    1
    31    16    40    1
    32    17    18    1
    33    17    41    1
    34    17    42    1
    35    18    19    1
    36    18    43    1
    37    18    44    1
    38    19    20    1
    39    19    45    1
    40    19    46    1
    41    20    21    2
    42    20    22    1
    43    22    23    1
    44    23    24    1
    45    23    25    1
    46    23    26    1
    47    24    47    1
    48    24    48    1
    49    24    49    1
    50    25    50    1
    51    25    51    1
    52    25    52    1
    53    26    53    1
    54    26    54    1
    55    26    55    1
@<TRIPOS>SUBSTRUCTURE
     1 ZINC001461256440        1 TEMP              0 ****  ****    0 ROOT


##########                                Name:    ZINC000992031068
##########                DOCK_Rotatable_Bonds:                   8
##########                         Heavy_Atoms:                  25
##########                    Molecular_Weight:             342.401
##########                DOCK_Rotatable_Bonds:                   8
##########                       Formal_Charge:           0.0199999
##########                     HBond_Acceptors:                   8
##########                        HBond_Donors:                   2
##########                         Heavy_Atoms:                  25
##########                          Grid_Score:          -37.010056
##########                     Grid_vdw_energy:          -36.307480
##########                      Grid_es_energy:           -0.702576
##########           Internal_energy_repulsive:            6.587862

@<TRIPOS>MOLECULE
ZINC000992031068
 47 49 1 0 0
SMALL
USER_CHARGES


@<TRIPOS>ATOM
      1 C1         -7.7003    0.7408   65.8253 C.3     1  ZINC000992031068   -0.1100
      2 C2         -8.8219    0.5837   64.8310 C.ar    1  ZINC000992031068    0.1800
      3 C3         -8.5834    0.0199   63.5859 C.ar    1  ZINC000992031068   -0.1700
      4 C4         -9.6547   -0.1042   62.7005 C.ar    1  ZINC000992031068    0.1300
      5 C5         -9.4570   -0.7005   61.3555 C.2     1  ZINC000992031068    0.5700
      6 O6         -9.8174   -0.0971   60.3646 O.2     1  ZINC000992031068   -0.5200
      7 N7         -8.8777   -1.9112   61.2336 N.am    1  ZINC000992031068   -0.7100
      8 C8         -8.6810   -2.4990   59.9062 C.3     1  ZINC000992031068    0.1300
      9 C9        -10.0055   -3.0753   59.4021 C.3     1  ZINC000992031068   -0.1200
     10 C10       -10.5154   -2.4108   58.1123 C.3     1  ZINC000992031068   -0.1400
     11 C11       -10.9363   -3.8153   57.6485 C.3     1  ZINC000992031068    0.1200
     12 N12       -10.6779   -4.0663   56.2285 N.am    1  ZINC000992031068   -0.7200
     13 C13       -11.5769   -3.6803   55.3014 C.2     1  ZINC000992031068    0.5200
     14 O14       -12.5989   -3.1238   55.6427 O.2     1  ZINC000992031068   -0.5200
     15 C15       -11.3118   -3.9401   53.8409 C.3     1  ZINC000992031068   -0.0800
     16 C16       -11.9569   -2.8585   53.0132 C.2     1  ZINC000992031068    0.1000
     17 C17       -13.2145   -2.8788   52.5142 C.2     1  ZINC000992031068   -0.2500
     18 C18       -13.4171   -1.6879   51.8092 C.2     1  ZINC000992031068    0.0500
     19 N19       -12.3205   -0.9780   51.8823 N.2     1  ZINC000992031068   -0.2900
     20 N20       -11.3857   -1.6935   52.6418 N.pl3   1  ZINC000992031068   -0.3700
     21 C21       -10.0254   -1.2581   52.9674 C.3     1  ZINC000992031068    0.1000
     22 C22        -9.8432   -4.3648   58.5801 C.3     1  ZINC000992031068   -0.1400
     23 N23       -10.8568    0.3205   63.0821 N.ar    1  ZINC000992031068   -0.5000
     24 C24       -11.0364    0.8491   64.2736 C.ar    1  ZINC000992031068    0.3000
     25 N25       -10.0468    0.9766   65.1361 N.ar    1  ZINC000992031068   -0.5100
     26 H26        -7.6348   -0.1546   66.4435 H       1  ZINC000992031068    0.0900
     27 H27        -6.7600    0.8840   65.2928 H       1  ZINC000992031068    0.0900
     28 H28        -7.8947    1.6063   66.4587 H       1  ZINC000992031068    0.0900
     29 H29        -7.5943   -0.3139   63.3090 H       1  ZINC000992031068    0.1600
     30 H30        -8.5909   -2.3936   62.0248 H       1  ZINC000992031068    0.4100
     31 H31        -8.3332   -1.7300   59.2163 H       1  ZINC000992031068    0.0700
     32 H32        -7.9384   -3.2946   59.9675 H       1  ZINC000992031068    0.0800
     33 H33       -10.7604   -3.1486   60.1849 H       1  ZINC000992031068    0.1000
     34 H34       -11.3547   -1.7340   58.2723 H       1  ZINC000992031068    0.0800
     35 H35        -9.7241   -1.9697   57.5062 H       1  ZINC000992031068    0.0900
     36 H36       -11.9472   -4.0899   57.9497 H       1  ZINC000992031068    0.1200
     37 H37        -9.8599   -4.5103   55.9555 H       1  ZINC000992031068    0.4000
     38 H38       -10.2367   -3.9425   53.6614 H       1  ZINC000992031068    0.1200
     39 H39       -11.7288   -4.9080   53.5626 H       1  ZINC000992031068    0.1100
     40 H40       -13.9345   -3.6743   52.6381 H       1  ZINC000992031068    0.1500
     41 H41       -14.3223   -1.4037   51.2931 H       1  ZINC000992031068    0.1800
     42 H42       -10.0372   -0.6985   53.9028 H       1  ZINC000992031068    0.0800
     43 H43        -9.3805   -2.1304   53.0741 H       1  ZINC000992031068    0.0800
     44 H44        -9.6465   -0.6216   52.1679 H       1  ZINC000992031068    0.0900
     45 H45        -8.8681   -4.4579   58.1018 H       1  ZINC000992031068    0.0900
     46 H46       -10.1398   -5.2655   59.1176 H       1  ZINC000992031068    0.0800
     47 H47       -12.0235    1.1847   64.5549 H       1  ZINC000992031068    0.2100
@<TRIPOS>BOND
     1     1     2    1
     2     1    26    1
     3     1    27    1
     4     1    28    1
     5     2    25   ar
     6     2     3   ar
     7     3     4   ar
     8     3    29    1
     9     4     5    1
    10     4    23   ar
    11     5     6    2
    12     5     7   am
    13     7     8    1
    14     7    30    1
    15     8     9    1
    16     8    31    1
    17     8    32    1
    18     9    22    1
    19     9    10    1
    20     9    33    1
    21    10    11    1
    22    10    34    1
    23    10    35    1
    24    11    12    1
    25    11    22    1
    26    11    36    1
    27    12    13   am
    28    12    37    1
    29    13    14    2
    30    13    15    1
    31    15    16    1
    32    15    38    1
    33    15    39    1
    34    16    20    1
    35    16    17    2
    36    17    18    1
    37    17    40    1
    38    18    19    2
    39    18    41    1
    40    19    20    1
    41    20    21    1
    42    21    42    1
    43    21    43    1
    44    21    44    1
    45    22    45    1
    46    22    46    1
    47    23    24   ar
    48    24    25   ar
    49    24    47    1
@<TRIPOS>SUBSTRUCTURE
     1 ZINC000992031068        1 TEMP              0 ****  ****    0 ROOT


##########                                Name:    ZINC000523878927
##########                DOCK_Rotatable_Bonds:                   8
##########                         Heavy_Atoms:                  27
##########                    Molecular_Weight:             376.474
##########                DOCK_Rotatable_Bonds:                   8
##########                       Formal_Charge:          0.00999957
##########                     HBond_Acceptors:                   7
##########                        HBond_Donors:                   3
##########                         Heavy_Atoms:                  27
##########                          Grid_Score:          -36.989349
##########                     Grid_vdw_energy:          -34.926865
##########                      Grid_es_energy:           -2.062487
##########           Internal_energy_repulsive:            9.648384

@<TRIPOS>MOLECULE
ZINC000523878927
 56 58 1 0 0
SMALL
USER_CHARGES


@<TRIPOS>ATOM
      1 C1        -14.6894   -0.1915   53.1361 C.3     1  ZINC000523878927   -0.1500
      2 C2        -14.4279   -1.2722   52.0851 C.3     1  ZINC000523878927   -0.0900
      3 H3        -14.6214   -0.8673   51.0918 H       1  ZINC000523878927    0.0700
      4 C4        -15.3525   -2.4645   52.3388 C.3     1  ZINC000523878927   -0.1200
      5 C5        -15.0809   -3.0328   53.7331 C.3     1  ZINC000523878927   -0.1200
      6 C6        -13.6234   -3.4895   53.8228 C.3     1  ZINC000523878927   -0.1100
      7 C7        -12.6989   -2.2971   53.5691 C.3     1  ZINC000523878927   -0.1000
      8 H8        -12.8850   -1.5272   54.3178 H       1  ZINC000523878927    0.0800
      9 C9        -11.2414   -2.7538   53.6586 C.3     1  ZINC000523878927    0.1400
     10 N10       -10.9685   -3.2543   55.0082 N.am    1  ZINC000523878927   -0.7400
     11 C11       -10.8393   -2.3900   56.0341 C.2     1  ZINC000523878927    0.7200
     12 O12       -10.9478   -1.1948   55.8395 O.2     1  ZINC000523878927   -0.5800
     13 N13       -10.5897   -2.8506   57.2759 N.am    1  ZINC000523878927   -0.6400
     14 C14       -10.4352   -4.2678   57.6518 C.3     1  ZINC000523878927    0.1000
     15 C15        -9.5827   -4.2444   58.9450 C.3     1  ZINC000523878927   -0.1400
     16 C16       -10.1292   -2.9778   59.6555 C.3     1  ZINC000523878927    0.1500
     17 H17       -11.0418   -3.2077   60.2053 H       1  ZINC000523878927    0.1100
     18 N18        -9.1177   -2.4076   60.5488 N.am    1  ZINC000523878927   -0.7300
     19 C19        -9.4824   -1.5382   61.5119 C.2     1  ZINC000523878927    0.7100
     20 O20       -10.6512   -1.2284   61.6404 O.2     1  ZINC000523878927   -0.5700
     21 N21        -8.5517   -1.0124   62.3327 N.am    1  ZINC000523878927   -0.6800
     22 C22        -8.9308   -0.1089   63.3336 C.ar    1  ZINC000523878927    0.1500
     23 C23        -8.6228   -0.3730   64.6614 C.ar    1  ZINC000523878927   -0.1200
     24 C24        -8.9971    0.5194   65.6468 C.ar    1  ZINC000523878927   -0.1300
     25 C25        -9.6794    1.6766   65.3114 C.ar    1  ZINC000523878927    0.0800
     26 F26       -10.0450    2.5481   66.2767 F       1  ZINC000523878927   -0.1400
     27 C27        -9.9871    1.9421   63.9877 C.ar    1  ZINC000523878927   -0.1300
     28 C28        -9.6100    1.0548   62.9987 C.ar    1  ZINC000523878927   -0.0900
     29 C29       -10.4203   -2.0226   58.4789 C.3     1  ZINC000523878927    0.1200
     30 C30       -12.9704   -1.7288   52.1747 C.3     1  ZINC000523878927   -0.1100
     31 H31       -14.0307    0.6580   52.9554 H       1  ZINC000523878927    0.0500
     32 H32       -15.7277    0.1338   53.0723 H       1  ZINC000523878927    0.0500
     33 H33       -14.4958   -0.5963   54.1294 H       1  ZINC000523878927    0.0600
     34 H34       -16.3908   -2.1392   52.2750 H       1  ZINC000523878927    0.0600
     35 H35       -15.1662   -3.2345   51.5900 H       1  ZINC000523878927    0.0600
     36 H36       -15.2671   -2.2629   54.4819 H       1  ZINC000523878927    0.0700
     37 H37       -15.7396   -3.8823   53.9138 H       1  ZINC000523878927    0.0600
     38 H38       -13.4299   -3.8944   54.8161 H       1  ZINC000523878927    0.0600
     39 H39       -13.4372   -4.2594   53.0740 H       1  ZINC000523878927    0.0600
     40 H40       -11.0643   -3.5483   52.9338 H       1  ZINC000523878927    0.0700
     41 H41       -10.5830   -1.9121   53.4433 H       1  ZINC000523878927    0.0700
     42 H42       -10.8807   -4.2078   55.1632 H       1  ZINC000523878927    0.3900
     43 H43       -11.4090   -4.7167   57.8474 H       1  ZINC000523878927    0.0800
     44 H44        -9.9158   -4.8145   56.8648 H       1  ZINC000523878927    0.0800
     45 H45        -9.7597   -5.1364   59.5458 H       1  ZINC000523878927    0.1000
     46 H46        -8.5234   -4.1356   58.7127 H       1  ZINC000523878927    0.0800
     47 H47        -8.1856   -2.6557   60.4471 H       1  ZINC000523878927    0.4000
     48 H48        -7.6194   -1.2597   62.2302 H       1  ZINC000523878927    0.4100
     49 H49        -8.0912   -1.2759   64.9235 H       1  ZINC000523878927    0.1400
     50 H50        -8.7577    0.3143   66.6798 H       1  ZINC000523878927    0.1400
     51 H51       -10.5194    2.8453   63.7280 H       1  ZINC000523878927    0.1400
     52 H52        -9.8498    1.2624   61.9663 H       1  ZINC000523878927    0.1500
     53 H53        -9.5865   -1.3333   58.3462 H       1  ZINC000523878927    0.0700
     54 H54       -11.3372   -1.4658   58.6718 H       1  ZINC000523878927    0.0800
     55 H55       -12.7842   -2.4988   51.4260 H       1  ZINC000523878927    0.0700
     56 H56       -12.3117   -0.8794   51.9939 H       1  ZINC000523878927    0.0700
@<TRIPOS>BOND
     1     1     2    1
     2     1    31    1
     3     1    32    1
     4     1    33    1
     5     2     3    1
     6     2    30    1
     7     2     4    1
     8     4     5    1
     9     4    34    1
    10     4    35    1
    11     5     6    1
    12     5    36    1
    13     5    37    1
    14     6     7    1
    15     6    38    1
    16     6    39    1
    17     7     8    1
    18     7     9    1
    19     7    30    1
    20     9    10    1
    21     9    40    1
    22     9    41    1
    23    10    11   am
    24    10    42    1
    25    11    12    2
    26    11    13   am
    27    13    29    1
    28    13    14    1
    29    14    15    1
    30    14    43    1
    31    14    44    1
    32    15    16    1
    33    15    45    1
    34    15    46    1
    35    16    17    1
    36    16    18    1
    37    16    29    1
    38    18    19   am
    39    18    47    1
    40    19    20    2
    41    19    21   am
    42    21    22    1
    43    21    48    1
    44    22    28   ar
    45    22    23   ar
    46    23    24   ar
    47    23    49    1
    48    24    25   ar
    49    24    50    1
    50    25    26    1
    51    25    27   ar
    52    27    28   ar
    53    27    51    1
    54    28    52    1
    55    29    53    1
    56    29    54    1
    57    30    55    1
    58    30    56    1
@<TRIPOS>SUBSTRUCTURE
     1 ZINC000523878927        1 TEMP              0 ****  ****    0 ROOT


##########                                Name:    ZINC000762187039
##########                DOCK_Rotatable_Bonds:                   9
##########                         Heavy_Atoms:                  25
##########                    Molecular_Weight:             354.473
##########                DOCK_Rotatable_Bonds:                   9
##########                       Formal_Charge:        -1.78814e-07
##########                     HBond_Acceptors:                   5
##########                        HBond_Donors:                   1
##########                         Heavy_Atoms:                  25
##########                          Grid_Score:          -36.976940
##########                     Grid_vdw_energy:          -36.456120
##########                      Grid_es_energy:           -0.520819
##########           Internal_energy_repulsive:           11.767067

@<TRIPOS>MOLECULE
ZINC000762187039
 47 49 1 0 0
SMALL
USER_CHARGES


@<TRIPOS>ATOM
      1 C1         -7.4981   -0.9651   52.0765 C.3     1  ZINC000762187039   -0.0800
      2 C2         -8.9500   -1.0129   52.4776 C.2     1  ZINC000762187039    0.0500
      3 N3         -9.8367   -1.7878   51.9502 N.2     1  ZINC000762187039   -0.4700
      4 C4        -11.0649   -1.7029   52.4204 C.2     1  ZINC000762187039    0.0700
      5 C5        -12.1980   -2.5478   51.8978 C.3     1  ZINC000762187039   -0.0300
      6 C6        -13.2103   -2.7929   53.0185 C.3     1  ZINC000762187039   -0.1300
      7 C7        -12.5496   -3.5629   54.1328 C.2     1  ZINC000762187039    0.5200
      8 O8        -11.7434   -4.4314   53.8746 O.2     1  ZINC000762187039   -0.5400
      9 N9        -12.8548   -3.2865   55.4161 N.am    1  ZINC000762187039   -0.7300
     10 C10       -12.2137   -4.0362   56.4992 C.3     1  ZINC000762187039    0.1200
     11 C11       -10.7364   -3.6469   56.5841 C.3     1  ZINC000762187039   -0.1300
     12 C12       -10.2066   -3.9585   57.9852 C.3     1  ZINC000762187039    0.0600
     13 O13        -9.0927   -3.1108   58.2727 O.3     1  ZINC000762187039   -0.3100
     14 C14        -9.2895   -2.1207   59.1822 C.ar    1  ZINC000762187039    0.1300
     15 C15       -10.0281   -0.9897   58.8219 C.ar    1  ZINC000762187039   -0.1900
     16 C16       -10.2422    0.0179   59.7102 C.ar    1  ZINC000762187039   -0.0600
     17 C17        -9.7156   -0.0752   61.0101 C.ar    1  ZINC000762187039   -0.0800
     18 C18        -9.9179    0.9469   61.9531 C.ar    1  ZINC000762187039   -0.0900
     19 C19        -9.3940    0.8236   63.2030 C.ar    1  ZINC000762187039   -0.1300
     20 C20        -8.6576   -0.3031   63.5648 C.ar    1  ZINC000762187039   -0.1000
     21 C21        -8.4409   -1.3128   62.6786 C.ar    1  ZINC000762187039   -0.1200
     22 C22        -8.9666   -1.2214   61.3779 C.ar    1  ZINC000762187039   -0.0100
     23 C23        -8.7679   -2.2459   60.4385 C.ar    1  ZINC000762187039   -0.1500
     24 C24       -11.2230   -0.8066   53.3989 C.2     1  ZINC000762187039   -0.2600
     25 S25        -9.6591   -0.0536   53.7023 S.3     1  ZINC000762187039    0.1200
     26 H26        -6.9768   -0.2272   52.6863 H       1  ZINC000762187039    0.0800
     27 H27        -7.0468   -1.9457   52.2279 H       1  ZINC000762187039    0.0900
     28 H28        -7.4205   -0.6877   51.0252 H       1  ZINC000762187039    0.0900
     29 H29       -12.6873   -2.0296   51.0731 H       1  ZINC000762187039    0.0900
     30 H30       -11.8071   -3.5026   51.5461 H       1  ZINC000762187039    0.0900
     31 H31       -13.5685   -1.8368   53.4001 H       1  ZINC000762187039    0.0900
     32 H32       -14.0513   -3.3668   52.6292 H       1  ZINC000762187039    0.1000
     33 H33       -13.4987   -2.5911   55.6225 H       1  ZINC000762187039    0.4000
     34 H34       -12.7057   -3.8026   57.4434 H       1  ZINC000762187039    0.0700
     35 H35       -12.2971   -5.1046   56.3006 H       1  ZINC000762187039    0.0700
     36 H36       -10.1685   -4.2139   55.8465 H       1  ZINC000762187039    0.0800
     37 H37       -10.6295   -2.5808   56.3840 H       1  ZINC000762187039    0.0800
     38 H38       -10.9942   -3.7847   58.7184 H       1  ZINC000762187039    0.0700
     39 H39        -9.8913   -5.0009   58.0309 H       1  ZINC000762187039    0.0700
     40 H40       -10.4343   -0.9148   57.8240 H       1  ZINC000762187039    0.1300
     41 H41       -10.8142    0.8861   59.4179 H       1  ZINC000762187039    0.1300
     42 H42       -10.4863    1.8259   61.6871 H       1  ZINC000762187039    0.1300
     43 H43        -9.5509    1.6109   63.9255 H       1  ZINC000762187039    0.1200
     44 H44        -8.2524   -0.3757   64.5634 H       1  ZINC000762187039    0.1200
     45 H45        -7.8684   -2.1799   62.9729 H       1  ZINC000762187039    0.1300
     46 H46        -8.2027   -3.1263   60.7066 H       1  ZINC000762187039    0.1300
     47 H47       -12.1454   -0.5856   53.9152 H       1  ZINC000762187039    0.1800
@<TRIPOS>BOND
     1     1     2    1
     2     1    26    1
     3     1    27    1
     4     1    28    1
     5     2    25    1
     6     2     3    2
     7     3     4    1
     8     4     5    1
     9     4    24    2
    10     5     6    1
    11     5    29    1
    12     5    30    1
    13     6     7    1
    14     6    31    1
    15     6    32    1
    16     7     8    2
    17     7     9   am
    18     9    10    1
    19     9    33    1
    20    10    11    1
    21    10    34    1
    22    10    35    1
    23    11    12    1
    24    11    36    1
    25    11    37    1
    26    12    13    1
    27    12    38    1
    28    12    39    1
    29    13    14    1
    30    14    23   ar
    31    14    15   ar
    32    15    16   ar
    33    15    40    1
    34    16    17   ar
    35    16    41    1
    36    17    22   ar
    37    17    18   ar
    38    18    19   ar
    39    18    42    1
    40    19    20   ar
    41    19    43    1
    42    20    21   ar
    43    20    44    1
    44    21    22   ar
    45    21    45    1
    46    22    23   ar
    47    23    46    1
    48    24    25    1
    49    24    47    1
@<TRIPOS>SUBSTRUCTURE
     1 ZINC000762187039        1 TEMP              0 ****  ****    0 ROOT


##########                                Name:    ZINC000051488227
##########                DOCK_Rotatable_Bonds:                   8
##########                         Heavy_Atoms:                  30
##########                    Molecular_Weight:             403.478
##########                DOCK_Rotatable_Bonds:                   8
##########                       Formal_Charge:           0.0199996
##########                     HBond_Acceptors:                   5
##########                        HBond_Donors:                   0
##########                         Heavy_Atoms:                  30
##########                          Grid_Score:          -36.975224
##########                     Grid_vdw_energy:          -35.347794
##########                      Grid_es_energy:           -1.627428
##########           Internal_energy_repulsive:           23.452642

@<TRIPOS>MOLECULE
ZINC000051488227
 55 58 1 0 0
SMALL
USER_CHARGES


@<TRIPOS>ATOM
      1 O1        -11.1917   -4.7444   56.8762 O.2     1  ZINC000051488227   -0.5000
      2 C2        -11.8314   -3.7409   57.0859 C.2     1  ZINC000051488227    0.4800
      3 O3        -11.4544   -2.8957   58.0581 O.3     1  ZINC000051488227   -0.3400
      4 C4        -10.3483   -3.3123   58.9015 C.3     1  ZINC000051488227    0.1100
      5 C5        -10.2136   -2.3586   60.0606 C.ar    1  ZINC000051488227   -0.1400
      6 C6         -9.0253   -2.2909   60.7641 C.ar    1  ZINC000051488227   -0.0500
      7 C7         -8.8992   -1.4176   61.8270 C.ar    1  ZINC000051488227   -0.1500
      8 C8         -9.9662   -0.6076   62.1880 C.ar    1  ZINC000051488227    0.1500
      9 O9         -9.8446    0.2528   63.2330 O.3     1  ZINC000051488227   -0.3100
     10 C10        -8.5809    0.2896   63.8992 C.3     1  ZINC000051488227    0.1100
     11 C11        -8.6170    1.3315   64.9875 C.ar    1  ZINC000051488227    0.1200
     12 C12        -7.4565    1.9958   65.3356 C.ar    1  ZINC000051488227   -0.1500
     13 C13        -7.5006    2.9531   66.3380 C.ar    1  ZINC000051488227   -0.0700
     14 C14        -8.7159    3.2069   66.9548 C.ar    1  ZINC000051488227   -0.1700
     15 C15        -9.8353    2.5024   66.5531 C.ar    1  ZINC000051488227    0.1100
     16 N16        -9.7570    1.6025   65.5926 N.ar    1  ZINC000051488227   -0.4800
     17 C17       -11.1573   -0.6770   61.4801 C.ar    1  ZINC000051488227   -0.2100
     18 C18       -11.2766   -1.5486   60.4151 C.ar    1  ZINC000051488227   -0.0500
     19 C19       -13.0486   -3.4353   56.2517 C.3     1  ZINC000051488227    0.0000
     20 C20       -12.6354   -2.6792   55.0153 C.ar    1  ZINC000051488227   -0.0900
     21 C21       -11.2951   -2.4755   54.7453 C.ar    1  ZINC000051488227   -0.1100
     22 C22       -10.9161   -1.7821   53.6111 C.ar    1  ZINC000051488227   -0.1200
     23 C23       -11.8774   -1.2926   52.7467 C.ar    1  ZINC000051488227   -0.1100
     24 C24       -13.2177   -1.4970   53.0163 C.ar    1  ZINC000051488227   -0.1200
     25 C25       -13.5966   -2.1943   54.1482 C.ar    1  ZINC000051488227   -0.1000
     26 C26       -13.7354   -4.7438   55.8487 C.3     1  ZINC000051488227   -0.1400
     27 C27       -14.2197   -5.4660   57.1087 C.3     1  ZINC000051488227    0.0600
     28 O28       -15.1031   -4.6106   57.8366 O.3     1  ZINC000051488227   -0.3800
     29 C29       -14.5019   -3.3924   58.2804 C.3     1  ZINC000051488227    0.0500
     30 C30       -14.0291   -2.5870   57.0673 C.3     1  ZINC000051488227   -0.1400
     31 H31       -10.5371   -4.3175   59.2782 H       1  ZINC000051488227    0.0800
     32 H32        -9.4266   -3.3094   58.3197 H       1  ZINC000051488227    0.0800
     33 H33        -8.1950   -2.9217   60.4827 H       1  ZINC000051488227    0.1300
     34 H34        -7.9711   -1.3656   62.3767 H       1  ZINC000051488227    0.1400
     35 H35        -8.3726   -0.6865   64.3374 H       1  ZINC000051488227    0.0900
     36 H36        -7.7993    0.5403   63.1820 H       1  ZINC000051488227    0.0900
     37 H37        -6.5267    1.7721   64.8337 H       1  ZINC000051488227    0.1400
     38 H38        -6.6094    3.4879   66.6313 H       1  ZINC000051488227    0.1400
     39 H39        -8.7871    3.9455   67.7397 H       1  ZINC000051488227    0.1400
     40 H40       -10.7857    2.6940   67.0290 H       1  ZINC000051488227    0.1600
     41 H41       -11.9894   -0.0478   61.7594 H       1  ZINC000051488227    0.1300
     42 H42       -12.2036   -1.6028   59.8634 H       1  ZINC000051488227    0.1300
     43 H43       -10.5441   -2.8580   55.4206 H       1  ZINC000051488227    0.1300
     44 H44        -9.8690   -1.6223   53.4006 H       1  ZINC000051488227    0.1300
     45 H45       -11.5813   -0.7501   51.8610 H       1  ZINC000051488227    0.1200
     46 H46       -13.9688   -1.1144   52.3410 H       1  ZINC000051488227    0.1200
     47 H47       -14.6438   -2.3539   54.3587 H       1  ZINC000051488227    0.1300
     48 H48       -14.5870   -4.5249   55.2044 H       1  ZINC000051488227    0.0900
     49 H49       -13.0272   -5.3776   55.3151 H       1  ZINC000051488227    0.0900
     50 H50       -14.7469   -6.3769   56.8257 H       1  ZINC000051488227    0.1000
     51 H51       -13.3635   -5.7206   57.7335 H       1  ZINC000051488227    0.0500
     52 H52       -15.2326   -2.8097   58.8413 H       1  ZINC000051488227    0.1000
     53 H53       -13.6495   -3.6198   58.9204 H       1  ZINC000051488227    0.0700
     54 H54       -13.5308   -1.6783   57.4052 H       1  ZINC000051488227    0.0900
     55 H55       -14.8865   -2.3245   56.4477 H       1  ZINC000051488227    0.0900
@<TRIPOS>BOND
     1     1     2    2
     2     2     3    1
     3     2    19    1
     4     3     4    1
     5     4     5    1
     6     4    31    1
     7     4    32    1
     8     5    18   ar
     9     5     6   ar
    10     6     7   ar
    11     6    33    1
    12     7     8   ar
    13     7    34    1
    14     8     9    1
    15     8    17   ar
    16     9    10    1
    17    10    11    1
    18    10    35    1
    19    10    36    1
    20    11    16   ar
    21    11    12   ar
    22    12    13   ar
    23    12    37    1
    24    13    14   ar
    25    13    38    1
    26    14    15   ar
    27    14    39    1
    28    15    16   ar
    29    15    40    1
    30    17    18   ar
    31    17    41    1
    32    18    42    1
    33    19    30    1
    34    19    20    1
    35    19    26    1
    36    20    25   ar
    37    20    21   ar
    38    21    22   ar
    39    21    43    1
    40    22    23   ar
    41    22    44    1
    42    23    24   ar
    43    23    45    1
    44    24    25   ar
    45    24    46    1
    46    25    47    1
    47    26    27    1
    48    26    48    1
    49    26    49    1
    50    27    28    1
    51    27    50    1
    52    27    51    1
    53    28    29    1
    54    29    30    1
    55    29    52    1
    56    29    53    1
    57    30    54    1
    58    30    55    1
@<TRIPOS>SUBSTRUCTURE
     1 ZINC000051488227        1 TEMP              0 ****  ****    0 ROOT


##########                                Name:    ZINC000000992968
##########                DOCK_Rotatable_Bonds:                   8
##########                         Heavy_Atoms:                  27
##########                    Molecular_Weight:             384.772
##########                DOCK_Rotatable_Bonds:                   8
##########                       Formal_Charge:           0.0199999
##########                     HBond_Acceptors:                   7
##########                        HBond_Donors:                   0
##########                         Heavy_Atoms:                  27
##########                          Grid_Score:          -36.969254
##########                     Grid_vdw_energy:          -35.366596
##########                      Grid_es_energy:           -1.602656
##########           Internal_energy_repulsive:            5.320400

@<TRIPOS>MOLECULE
ZINC000000992968
 40 42 1 0 0
SMALL
USER_CHARGES


@<TRIPOS>ATOM
      1 O1        -12.9837   -0.0706   52.1228 O.2     1  ZINC000000992968   -0.4600
      2 C2        -13.0707   -0.7140   51.0943 C.2     1  ZINC000000992968    0.5600
      3 O3        -12.8700   -2.0482   51.1140 O.3     1  ZINC000000992968   -0.2900
      4 C4        -12.6897   -2.6476   52.3180 C.ar    1  ZINC000000992968    0.1200
      5 C5        -13.7417   -2.7104   53.2253 C.ar    1  ZINC000000992968   -0.1300
      6 C6        -13.5640   -3.3167   54.4477 C.ar    1  ZINC000000992968   -0.0400
      7 C7        -12.3213   -3.8715   54.7772 C.ar    1  ZINC000000992968   -0.1600
      8 C8        -12.1261   -4.5204   56.0805 C.2     1  ZINC000000992968    0.4000
      9 O9        -12.9771   -5.2639   56.5213 O.2     1  ZINC000000992968   -0.4200
     10 C10       -10.8686   -4.2624   56.8700 C.3     1  ZINC000000992968    0.0200
     11 O11       -11.2180   -3.8981   58.2314 O.3     1  ZINC000000992968   -0.3300
     12 C12       -10.2037   -3.7615   59.1075 C.2     1  ZINC000000992968    0.5100
     13 O13        -9.2795   -4.5499   59.0945 O.2     1  ZINC000000992968   -0.5000
     14 C14       -10.2152   -2.6535   60.0834 C.ar    1  ZINC000000992968   -0.1300
     15 C15        -9.0343   -2.2701   60.7232 C.ar    1  ZINC000000992968   -0.0500
     16 C16        -9.0517   -1.2343   61.6332 C.ar    1  ZINC000000992968   -0.1200
     17 C17       -10.2370   -0.5747   61.9137 C.ar    1  ZINC000000992968    0.0000
     18 Cl18      -10.2507    0.7280   63.0610 Cl      1  ZINC000000992968   -0.0500
     19 C19       -11.4114   -0.9500   61.2821 C.ar    1  ZINC000000992968   -0.1200
     20 C20       -11.4061   -1.9807   60.3662 C.ar    1  ZINC000000992968   -0.0400
     21 C21       -11.2654   -3.8060   53.8599 C.ar    1  ZINC000000992968   -0.0600
     22 C22       -11.4552   -3.2021   52.6380 C.ar    1  ZINC000000992968   -0.1200
     23 C23       -13.3992   -0.0414   49.8356 C.2     1  ZINC000000992968   -0.0700
     24 C24       -13.6283    1.2964   49.6757 C.2     1  ZINC000000992968   -0.0900
     25 C25       -13.9049    1.4983   48.3151 C.2     1  ZINC000000992968   -0.2300
     26 C26       -13.8336    0.2911   47.7110 C.2     1  ZINC000000992968    0.0200
     27 O27       -13.5232   -0.6329   48.6291 O.3     1  ZINC000000992968   -0.1500
     28 H28       -14.6998   -2.2821   52.9702 H       1  ZINC000000992968    0.1400
     29 H29       -14.3815   -3.3644   55.1520 H       1  ZINC000000992968    0.1500
     30 H30       -10.2553   -5.1633   56.8810 H       1  ZINC000000992968    0.1100
     31 H31       -10.3102   -3.4483   56.4079 H       1  ZINC000000992968    0.1100
     32 H32        -8.1098   -2.7841   60.5058 H       1  ZINC000000992968    0.1500
     33 H33        -8.1392   -0.9370   62.1285 H       1  ZINC000000992968    0.1500
     34 H34       -12.3323   -0.4316   61.5047 H       1  ZINC000000992968    0.1500
     35 H35       -12.3223   -2.2720   59.8743 H       1  ZINC000000992968    0.1500
     36 H36       -10.3049   -4.2322   54.1094 H       1  ZINC000000992968    0.1400
     37 H37       -10.6416   -3.1514   51.9296 H       1  ZINC000000992968    0.1400
     38 H38       -13.6016    2.0517   50.4471 H       1  ZINC000000992968    0.1700
     39 H39       -14.1319    2.4411   47.8398 H       1  ZINC000000992968    0.1700
     40 H40       -13.9965    0.1034   46.6600 H       1  ZINC000000992968    0.2200
@<TRIPOS>BOND
     1     1     2    2
     2     2     3    1
     3     2    23    1
     4     3     4    1
     5     4    22   ar
     6     4     5   ar
     7     5     6   ar
     8     5    28    1
     9     6     7   ar
    10     6    29    1
    11     7     8    1
    12     7    21   ar
    13     8     9    2
    14     8    10    1
    15    10    11    1
    16    10    30    1
    17    10    31    1
    18    11    12    1
    19    12    13    2
    20    12    14    1
    21    14    20   ar
    22    14    15   ar
    23    15    16   ar
    24    15    32    1
    25    16    17   ar
    26    16    33    1
    27    17    18    1
    28    17    19   ar
    29    19    20   ar
    30    19    34    1
    31    20    35    1
    32    21    22   ar
    33    21    36    1
    34    22    37    1
    35    23    27    1
    36    23    24    2
    37    24    25    1
    38    24    38    1
    39    25    26    2
    40    25    39    1
    41    26    27    1
    42    26    40    1
@<TRIPOS>SUBSTRUCTURE
     1 ZINC000000992968        1 TEMP              0 ****  ****    0 ROOT


##########                                Name:    ZINC000541000201
##########                DOCK_Rotatable_Bonds:                  10
##########                         Heavy_Atoms:                  30
##########                    Molecular_Weight:             420.413
##########                DOCK_Rotatable_Bonds:                  10
##########                       Formal_Charge:               -0.03
##########                     HBond_Acceptors:                   9
##########                        HBond_Donors:                   1
##########                         Heavy_Atoms:                  30
##########                          Grid_Score:          -36.966564
##########                     Grid_vdw_energy:          -38.036732
##########                      Grid_es_energy:            1.070166
##########           Internal_energy_repulsive:           15.811831

@<TRIPOS>MOLECULE
ZINC000541000201
 52 54 1 0 0
SMALL
USER_CHARGES


@<TRIPOS>ATOM
      1 C1        -14.4975   -4.0030   54.6407 C.3     1  ZINC000541000201    0.0400
      2 O2        -13.2575   -4.7252   54.4187 O.3     1  ZINC000541000201   -0.3500
      3 C3        -12.2746   -4.0675   53.7838 C.2     1  ZINC000541000201    0.4500
      4 O4        -11.7530   -4.5550   52.8090 O.2     1  ZINC000541000201   -0.4900
      5 C5        -11.8217   -2.7211   54.2868 C.3     1  ZINC000541000201    0.2100
      6 H6        -12.6259   -1.9964   54.1598 H       1  ZINC000541000201    0.1400
      7 N7        -10.6475   -2.2856   53.5266 N.am    1  ZINC000541000201   -0.7100
      8 C8        -10.3733   -0.9717   53.4042 C.2     1  ZINC000541000201    0.5800
      9 O9        -11.1012   -0.1478   53.9235 O.2     1  ZINC000541000201   -0.5300
     10 C10        -9.1892   -0.5329   52.6398 C.ar    1  ZINC000541000201   -0.2300
     11 C11        -8.3453   -1.4740   52.0323 C.ar    1  ZINC000541000201    0.0200
     12 C12        -7.2508   -1.0148   51.3285 C.ar    1  ZINC000541000201   -0.2000
     13 C13        -7.0215    0.3549   51.2448 C.ar    1  ZINC000541000201    0.3500
     14 O14        -5.9483    0.8114   50.5551 O.3     1  ZINC000541000201   -0.2900
     15 C15        -5.7727    2.2282   50.4917 C.3     1  ZINC000541000201    0.0800
     16 C16        -5.4857    2.8024   51.9013 C.3     1  ZINC000541000201   -0.1400
     17 C17        -4.7485    4.1279   51.5868 C.3     1  ZINC000541000201   -0.1200
     18 C18        -3.8603    3.7877   50.3723 C.3     1  ZINC000541000201   -0.1200
     19 C19        -4.5115    2.5799   49.6759 C.3     1  ZINC000541000201   -0.1200
     20 N20        -7.8374    1.2189   51.8294 N.ar    1  ZINC000541000201   -0.5400
     21 C21        -8.8958    0.8250   52.5060 C.ar    1  ZINC000541000201    0.1800
     22 C22       -11.4646   -2.8246   55.7472 C.ar    1  ZINC000541000201   -0.1300
     23 C23       -12.0956   -2.0121   56.6711 C.ar    1  ZINC000541000201   -0.0700
     24 C24       -11.7699   -2.1050   58.0105 C.ar    1  ZINC000541000201   -0.1300
     25 C25       -10.8094   -3.0147   58.4282 C.ar    1  ZINC000541000201    0.1200
     26 O26       -10.4878   -3.1081   59.7452 O.3     1  ZINC000541000201   -0.3200
     27 C27        -9.9329   -1.9444   60.3616 C.3     1  ZINC000541000201    0.4100
     28 F28        -9.2516   -2.3136   61.5265 F       1  ZINC000541000201   -0.2000
     29 F29        -9.0425   -1.3274   59.4764 F       1  ZINC000541000201   -0.2000
     30 C30       -10.1782   -3.8290   57.4992 C.ar    1  ZINC000541000201   -0.1900
     31 C31       -10.5108   -3.7356   56.1616 C.ar    1  ZINC000541000201   -0.0500
     32 H32       -15.2053   -4.6478   55.1617 H       1  ZINC000541000201    0.1000
     33 H33       -14.2993   -3.1179   55.2453 H       1  ZINC000541000201    0.0600
     34 H34       -14.9189   -3.7011   53.6819 H       1  ZINC000541000201    0.0600
     35 H35       -10.0674   -2.9428   53.1113 H       1  ZINC000541000201    0.4100
     36 H36        -8.5469   -2.5319   52.1135 H       1  ZINC000541000201    0.1600
     37 H37        -6.5793   -1.7111   50.8481 H       1  ZINC000541000201    0.1500
     38 H38        -6.6528    2.7017   50.0567 H       1  ZINC000541000201    0.1000
     39 H39        -6.4154    2.9952   52.4366 H       1  ZINC000541000201    0.0700
     40 H40        -4.8441    2.1289   52.4695 H       1  ZINC000541000201    0.0800
     41 H41        -5.4629    4.9101   51.3300 H       1  ZINC000541000201    0.0700
     42 H42        -4.1350    4.4335   52.4344 H       1  ZINC000541000201    0.0700
     43 H43        -3.8212    4.6362   49.6891 H       1  ZINC000541000201    0.0700
     44 H44        -2.8552    3.5294   50.7054 H       1  ZINC000541000201    0.0700
     45 H45        -3.8224    1.7355   49.6711 H       1  ZINC000541000201    0.0800
     46 H46        -4.7884    2.8422   48.6549 H       1  ZINC000541000201    0.0700
     47 H47        -9.5384    1.5593   52.9688 H       1  ZINC000541000201    0.1600
     48 H48       -12.8433   -1.3042   56.3455 H       1  ZINC000541000201    0.1300
     49 H49       -12.2626   -1.4697   58.7317 H       1  ZINC000541000201    0.1400
     50 H50       -10.7341   -1.2499   60.6142 H       1  ZINC000541000201    0.1900
     51 H51        -9.4298   -4.5377   57.8219 H       1  ZINC000541000201    0.1400
     52 H52       -10.0199   -4.3696   55.4381 H       1  ZINC000541000201    0.1400
@<TRIPOS>BOND
     1     1     2    1
     2     1    32    1
     3     1    33    1
     4     1    34    1
     5     2     3    1
     6     3     4    2
     7     3     5    1
     8     5     6    1
     9     5     7    1
    10     5    22    1
    11     7     8   am
    12     7    35    1
    13     8     9    2
    14     8    10    1
    15    10    21   ar
    16    10    11   ar
    17    11    12   ar
    18    11    36    1
    19    12    13   ar
    20    12    37    1
    21    13    14    1
    22    13    20   ar
    23    14    15    1
    24    15    19    1
    25    15    16    1
    26    15    38    1
    27    16    17    1
    28    16    39    1
    29    16    40    1
    30    17    18    1
    31    17    41    1
    32    17    42    1
    33    18    19    1
    34    18    43    1
    35    18    44    1
    36    19    45    1
    37    19    46    1
    38    20    21   ar
    39    21    47    1
    40    22    31   ar
    41    22    23   ar
    42    23    24   ar
    43    23    48    1
    44    24    25   ar
    45    24    49    1
    46    25    26    1
    47    25    30   ar
    48    26    27    1
    49    27    28    1
    50    27    29    1
    51    27    50    1
    52    30    31   ar
    53    30    51    1
    54    31    52    1
@<TRIPOS>SUBSTRUCTURE
     1 ZINC000541000201        1 TEMP              0 ****  ****    0 ROOT


##########                                Name:     oleObject17.pdb
##########                DOCK_Rotatable_Bonds:                   8
##########                         Heavy_Atoms:                  29
##########                    Molecular_Weight:             435.393
##########                DOCK_Rotatable_Bonds:                   8
##########                       Formal_Charge:         0.000400059
##########                     HBond_Acceptors:                   6
##########                        HBond_Donors:                   0
##########                         Heavy_Atoms:                  29
##########                          Grid_Score:          -36.947212
##########                     Grid_vdw_energy:          -36.117939
##########                      Grid_es_energy:           -0.829274
##########           Internal_energy_repulsive:           24.279842

@<TRIPOS>MOLECULE
oleObject17.pdb
 57 59 1 0 0
SMALL
NO_CHARGES


@<TRIPOS>ATOM
      1 C         -12.9962   -1.5150   53.5319 C.3     1  UNL         0.0391
      2 C         -13.9032   -1.6427   52.3061 C.ar    1  UNL        -0.0277
      3 C         -15.0671   -2.4522   52.2932 C.ar    1  UNL        -0.0463
      4 C         -15.8337   -2.5437   51.1146 C.ar    1  UNL        -0.0590
      5 C         -15.4602   -1.8419   49.9594 C.ar    1  UNL        -0.0620
      6 C         -14.3201   -1.0276   49.9759 C.ar    1  UNL        -0.0619
      7 C         -13.5517   -0.9262   51.1451 C.ar    1  UNL        -0.0572
      8 C         -15.5288   -3.2298   53.5208 C.3     1  UNL        -0.0394
      9 N         -11.8834   -2.4886   53.5232 N.am    1  UNL        -0.3003
     10 C         -11.5813   -3.2458   54.6548 C.2     1  UNL         0.2175
     11 O         -10.4985   -3.7994   54.7437 O.2     1  UNL        -0.2772
     12 C         -12.4680   -3.0110   55.9062 C.3     1  UNL         0.0384
     13 C         -12.2001   -1.6419   56.5809 C.3     1  UNL        -0.0289
     14 C         -10.8138   -1.6072   57.2532 C.3     1  UNL        -0.0010
     15 N         -10.6599   -2.6882   58.2514 N.4     1  UNL        -0.3010
     16 C         -10.9565   -4.0457   57.7368 C.3     1  UNL        -0.0010
     17 C         -12.3073   -4.1223   56.9793 C.3     1  UNL        -0.0289
     18 C          -9.3954   -2.6035   59.0173 C.3     1  UNL         0.0222
     19 C          -9.2596   -1.3063   59.8481 C.3     1  UNL         0.0661
     20 O         -10.1537   -1.3913   60.9706 O.3     1  UNL        -0.3432
     21 C          -9.9804   -0.6508   62.1243 C.ar    1  UNL         0.0937
     22 C          -8.7069   -0.4541   62.7007 C.ar    1  UNL        -0.0288
     23 C          -8.5706    0.3122   63.8699 C.ar    1  UNL        -0.0408
     24 C          -9.7028    0.8836   64.4716 C.ar    1  UNL         0.0422
     25 C         -10.9731    0.6893   63.9070 C.ar    1  UNL        -0.0221
     26 C         -11.1124   -0.0760   62.7370 C.ar    1  UNL         0.0723
     27 CL        -12.7128   -0.2945   62.0540 Cl      1  UNL        -0.0814
     28 CL         -9.5298    1.8389   65.9284 Cl      1  UNL        -0.0843
     29 C         -11.1241   -2.5960   52.2640 C.3     1  UNL         0.0031
     30 H         -13.5637   -1.6506   54.4593 H       1  UNL         0.0520
     31 H         -12.5939   -0.4945   53.5575 H       1  UNL         0.0520
     32 H         -16.7255   -3.1634   51.0906 H       1  UNL         0.0626
     33 H         -16.0577   -1.9239   49.0557 H       1  UNL         0.0623
     34 H         -14.0310   -0.4778   49.0850 H       1  UNL         0.0623
     35 H         -12.6676   -0.2956   51.1450 H       1  UNL         0.0626
     36 H         -15.6397   -2.5696   54.3897 H       1  UNL         0.0280
     37 H         -14.8171   -4.0214   53.7811 H       1  UNL         0.0280
     38 H         -16.5017   -3.7088   53.3549 H       1  UNL         0.0280
     39 H         -13.5117   -3.0305   55.5709 H       1  UNL         0.0402
     40 H         -12.9682   -1.4586   57.3434 H       1  UNL         0.0288
     41 H         -12.2813   -0.8216   55.8600 H       1  UNL         0.0288
     42 H         -10.6768   -0.6308   57.7353 H       1  UNL         0.0431
     43 H         -10.0496   -1.7050   56.4738 H       1  UNL         0.0431
     44 H         -10.9809   -4.7582   58.5713 H       1  UNL         0.0431
     45 H         -10.1554   -4.3690   57.0628 H       1  UNL         0.0431
     46 H         -13.1196   -4.0248   57.7110 H       1  UNL         0.0288
     47 H         -12.4207   -5.1122   56.5191 H       1  UNL         0.0288
     48 H          -8.5441   -2.6710   58.3279 H       1  UNL         0.0455
     49 H          -9.3288   -3.4613   59.6988 H       1  UNL         0.0455
     50 H          -9.5273   -0.4390   59.2337 H       1  UNL         0.0586
     51 H          -8.2262   -1.1896   60.1963 H       1  UNL         0.0586
     52 H          -7.8184   -0.8892   62.2550 H       1  UNL         0.0651
     53 H          -7.5878    0.4611   64.3085 H       1  UNL         0.0639
     54 H         -11.8485    1.1317   64.3739 H       1  UNL         0.0655
     55 H         -11.0685   -1.6179   51.7696 H       1  UNL         0.0433
     56 H         -11.6133   -3.3080   51.5884 H       1  UNL         0.0433
     57 H         -10.1001   -2.9336   52.4664 H       1  UNL         0.0433
@<TRIPOS>BOND
     1     1     2    1
     2     1     9    1
     3     1    30    1
     4     1    31    1
     5     2     3   ar
     6     2     7   ar
     7     3     4   ar
     8     3     8    1
     9     4     5   ar
    10     4    32    1
    11     5     6   ar
    12     5    33    1
    13     6     7   ar
    14     6    34    1
    15     7    35    1
    16     8    36    1
    17     8    37    1
    18     8    38    1
    19     9    10   am
    20     9    29    1
    21    10    11    2
    22    10    12    1
    23    12    13    1
    24    12    17    1
    25    12    39    1
    26    13    14    1
    27    13    40    1
    28    13    41    1
    29    14    15    1
    30    14    42    1
    31    14    43    1
    32    15    16    1
    33    15    18    1
    34    16    17    1
    35    16    44    1
    36    16    45    1
    37    17    46    1
    38    17    47    1
    39    18    19    1
    40    18    48    1
    41    18    49    1
    42    19    20    1
    43    19    50    1
    44    19    51    1
    45    20    21    1
    46    21    22   ar
    47    21    26   ar
    48    22    23   ar
    49    22    52    1
    50    23    24   ar
    51    23    53    1
    52    24    25   ar
    53    24    28    1
    54    25    26   ar
    55    25    54    1
    56    26    27    1
    57    29    55    1
    58    29    56    1
    59    29    57    1
@<TRIPOS>SUBSTRUCTURE
     1 UNL         1 TEMP              0 ****  ****    0 ROOT


##########                                Name:    ZINC000654672208
##########                DOCK_Rotatable_Bonds:                   5
##########                         Heavy_Atoms:                  25
##########                    Molecular_Weight:             365.497
##########                DOCK_Rotatable_Bonds:                   5
##########                       Formal_Charge:           0.0100001
##########                     HBond_Acceptors:                   7
##########                        HBond_Donors:                   1
##########                         Heavy_Atoms:                  25
##########                          Grid_Score:          -36.908562
##########                     Grid_vdw_energy:          -35.596725
##########                      Grid_es_energy:           -1.311834
##########           Internal_energy_repulsive:           16.076359

@<TRIPOS>MOLECULE
ZINC000654672208
 52 54 1 0 0
SMALL
USER_CHARGES


@<TRIPOS>ATOM
      1 C1        -11.4089   -2.1174   51.7470 C.3     1  ZINC000654672208   -0.1100
      2 C2        -12.2095   -2.8237   52.8104 C.ar    1  ZINC000654672208   -0.1300
      3 C3        -11.6321   -3.8188   53.5758 C.ar    1  ZINC000654672208    0.1000
      4 N4        -12.3263   -4.4411   54.5086 N.ar    1  ZINC000654672208   -0.4700
      5 C5        -13.5883   -4.1433   54.7484 C.ar    1  ZINC000654672208    0.1200
      6 C6        -14.3366   -4.8848   55.8260 C.3     1  ZINC000654672208   -0.0900
      7 C7        -13.3439   -5.4227   56.8585 C.3     1  ZINC000654672208    0.1500
      8 N8        -12.5000   -4.3269   57.3416 N.am    1  ZINC000654672208   -0.7500
      9 C9        -11.2873   -4.5915   57.8668 C.2     1  ZINC000654672208    0.7100
     10 O10       -10.8938   -5.7396   57.9398 O.2     1  ZINC000654672208   -0.5800
     11 N11       -10.5110   -3.5835   58.3113 N.am    1  ZINC000654672208   -0.6300
     12 C12        -9.1868   -3.8568   58.8862 C.3     1  ZINC000654672208    0.1300
     13 C13        -9.1069   -3.2037   60.2696 C.3     1  ZINC000654672208   -0.1400
     14 C14        -9.4440   -1.7163   60.1480 C.3     1  ZINC000654672208   -0.1100
     15 C15       -10.8763   -1.5576   59.6242 C.3     1  ZINC000654672208   -0.0600
     16 C16       -11.2100   -0.0659   59.5189 C.3     1  ZINC000654672208   -0.1200
     17 C17       -12.7354    0.1184   59.7255 C.3     1  ZINC000654672208   -0.5800
     18 S18       -13.0473   -1.0371   61.1208 S.o2    1  ZINC000654672208    2.3800
     19 O19       -12.6048   -0.4482   62.3359 O.2     1  ZINC000654672208   -0.9300
     20 O20       -14.3647   -1.5604   61.0213 O.2     1  ZINC000654672208   -0.9300
     21 C21       -11.8365   -2.2974   60.5715 C.3     1  ZINC000654672208   -0.5800
     22 C22       -10.9707   -2.1912   58.2241 C.3     1  ZINC000654672208    0.1200
     23 C23       -14.2325   -3.1587   54.0231 C.ar    1  ZINC000654672208   -0.1200
     24 C24       -15.6748   -2.8243   54.3040 C.3     1  ZINC000654672208   -0.1200
     25 C25       -13.5335   -2.4793   53.0373 C.ar    1  ZINC000654672208   -0.0800
     26 H26       -10.9155   -1.2478   52.1810 H       1  ZINC000654672208    0.0700
     27 H27       -10.6582   -2.7981   51.3452 H       1  ZINC000654672208    0.0700
     28 H28       -12.0737   -1.7956   50.9454 H       1  ZINC000654672208    0.0700
     29 H29       -10.6004   -4.0904   53.4078 H       1  ZINC000654672208    0.1600
     30 H30       -15.0370   -4.2069   56.3141 H       1  ZINC000654672208    0.0900
     31 H31       -14.8848   -5.7156   55.3819 H       1  ZINC000654672208    0.0900
     32 H32       -13.8901   -5.8570   57.6958 H       1  ZINC000654672208    0.0700
     33 H33       -12.7183   -6.1869   56.3973 H       1  ZINC000654672208    0.0700
     34 H34       -12.8141   -3.4110   57.2835 H       1  ZINC000654672208    0.3900
     35 H35        -9.0448   -4.9333   58.9813 H       1  ZINC000654672208    0.1000
     36 H36        -8.4146   -3.4396   58.2399 H       1  ZINC000654672208    0.0700
     37 H37        -9.8190   -3.6844   60.9405 H       1  ZINC000654672208    0.0700
     38 H38        -8.0984   -3.3168   60.6676 H       1  ZINC000654672208    0.0800
     39 H39        -9.3606   -1.2437   61.1266 H       1  ZINC000654672208    0.0800
     40 H40        -8.7492   -1.2418   59.4551 H       1  ZINC000654672208    0.0800
     41 H41       -10.6670    0.4861   60.2860 H       1  ZINC000654672208    0.1000
     42 H42       -10.9262    0.3044   58.5338 H       1  ZINC000654672208    0.1000
     43 H43       -12.9720    1.1448   60.0059 H       1  ZINC000654672208    0.1400
     44 H44       -13.2905   -0.1813   58.8366 H       1  ZINC000654672208    0.1400
     45 H45       -12.3444   -3.1024   60.0407 H       1  ZINC000654672208    0.1400
     46 H46       -11.2907   -2.6943   61.4274 H       1  ZINC000654672208    0.1400
     47 H47       -10.3420   -1.6355   57.5283 H       1  ZINC000654672208    0.0800
     48 H48       -12.0054   -2.1701   57.8822 H       1  ZINC000654672208    0.0800
     49 H49       -15.7256   -2.0417   55.0609 H       1  ZINC000654672208    0.0800
     50 H50       -16.1519   -2.4755   53.3881 H       1  ZINC000654672208    0.0700
     51 H51       -16.1902   -3.7140   54.6660 H       1  ZINC000654672208    0.0700
     52 H52       -14.0110   -1.7053   52.4548 H       1  ZINC000654672208    0.1300
@<TRIPOS>BOND
     1     1     2    1
     2     1    26    1
     3     1    27    1
     4     1    28    1
     5     2    25   ar
     6     2     3   ar
     7     3     4   ar
     8     3    29    1
     9     4     5   ar
    10     5     6    1
    11     5    23   ar
    12     6     7    1
    13     6    30    1
    14     6    31    1
    15     7     8    1
    16     7    32    1
    17     7    33    1
    18     8     9   am
    19     8    34    1
    20     9    10    2
    21     9    11   am
    22    11    22    1
    23    11    12    1
    24    12    13    1
    25    12    35    1
    26    12    36    1
    27    13    14    1
    28    13    37    1
    29    13    38    1
    30    14    15    1
    31    14    39    1
    32    14    40    1
    33    15    21    1
    34    15    16    1
    35    15    22    1
    36    16    17    1
    37    16    41    1
    38    16    42    1
    39    17    18    1
    40    17    43    1
    41    17    44    1
    42    18    19    2
    43    18    20    2
    44    18    21    1
    45    21    45    1
    46    21    46    1
    47    22    47    1
    48    22    48    1
    49    23    24    1
    50    23    25   ar
    51    24    49    1
    52    24    50    1
    53    24    51    1
    54    25    52    1
@<TRIPOS>SUBSTRUCTURE
     1 ZINC000654672208        1 TEMP              0 ****  ****    0 ROOT


##########                                Name:    ZINC000432253027
##########                DOCK_Rotatable_Bonds:                   8
##########                         Heavy_Atoms:                  26
##########                    Molecular_Weight:             401.436
##########                DOCK_Rotatable_Bonds:                   8
##########                       Formal_Charge:         1.19209e-07
##########                     HBond_Acceptors:                  11
##########                        HBond_Donors:                   0
##########                         Heavy_Atoms:                  26
##########                          Grid_Score:          -36.868160
##########                     Grid_vdw_energy:          -36.038521
##########                      Grid_es_energy:           -0.829639
##########           Internal_energy_repulsive:            5.421116

@<TRIPOS>MOLECULE
ZINC000432253027
 40 42 1 0 0
SMALL
USER_CHARGES


@<TRIPOS>ATOM
      1 C1        -12.9720   -0.5871   58.5105 C.3     1  ZINC000432253027    0.0300
      2 O2        -12.9666   -2.0106   58.6369 O.3     1  ZINC000432253027   -0.3100
      3 C3        -11.7774   -2.5994   58.9262 C.ar    1  ZINC000432253027    0.1500
      4 C4        -11.0685   -2.2175   60.0533 C.ar    1  ZINC000432253027   -0.2100
      5 C5         -9.8580   -2.8172   60.3466 C.ar    1  ZINC000432253027   -0.0600
      6 C6         -9.3465   -3.8013   59.5190 C.ar    1  ZINC000432253027   -0.1600
      7 C7        -10.0406   -4.1927   58.3926 C.ar    1  ZINC000432253027   -0.0300
      8 C8        -11.2659   -3.5991   58.0894 C.ar    1  ZINC000432253027   -0.0600
      9 C9        -12.0142   -4.0138   56.8845 C.2     1  ZINC000432253027    0.1200
     10 N10       -11.9351   -3.4484   55.7137 N.2     1  ZINC000432253027   -0.4600
     11 C11       -12.6767   -3.9552   54.7550 C.2     1  ZINC000432253027    0.0800
     12 C12       -12.6735   -3.3909   53.3577 C.3     1  ZINC000432253027   -0.0200
     13 S13       -10.9624   -3.1991   52.7869 S.3     1  ZINC000432253027   -0.1700
     14 C14       -10.6769   -1.4147   52.9451 C.3     1  ZINC000432253027   -0.0300
     15 C15        -9.2762   -1.0883   52.4950 C.2     1  ZINC000432253027    0.2100
     16 N16        -8.4998   -1.8355   51.7488 N.2     1  ZINC000432253027   -0.2700
     17 N17        -7.3848   -1.2113   51.5849 N.2     1  ZINC000432253027   -0.0500
     18 N18        -7.4296   -0.0851   52.2071 N.2     1  ZINC000432253027   -0.0700
     19 N19        -8.5819    0.0299   52.7763 N.pl3   1  ZINC000432253027   -0.3100
     20 C20        -9.0438    1.1608   53.5848 C.3     1  ZINC000432253027    0.0700
     21 C21        -9.6924    2.2065   52.6757 C.3     1  ZINC000432253027    0.4300
     22 F22       -10.8106    1.6485   52.0467 F       1  ZINC000432253027   -0.1500
     23 F23       -10.0894    3.3082   53.4412 F       1  ZINC000432253027   -0.1700
     24 F24        -8.7704    2.6191   51.7077 F       1  ZINC000432253027   -0.1700
     25 C25       -13.4340   -5.0026   55.0957 C.2     1  ZINC000432253027   -0.2500
     26 S26       -13.1509   -5.3571   56.7988 S.3     1  ZINC000432253027    0.1600
     27 H27       -13.9813   -0.2467   58.2790 H       1  ZINC000432253027    0.1000
     28 H28       -12.6431   -0.1379   59.4476 H       1  ZINC000432253027    0.0600
     29 H29       -12.2958   -0.2910   57.7085 H       1  ZINC000432253027    0.0600
     30 H30       -11.4618   -1.4502   60.7035 H       1  ZINC000432253027    0.1400
     31 H31        -9.3083   -2.5158   61.2260 H       1  ZINC000432253027    0.1300
     32 H32        -8.4000   -4.2646   59.7555 H       1  ZINC000432253027    0.1300
     33 H33        -9.6379   -4.9609   57.7490 H       1  ZINC000432253027    0.1400
     34 H34       -13.2052   -4.0695   52.6906 H       1  ZINC000432253027    0.1000
     35 H35       -13.1678   -2.4194   53.3569 H       1  ZINC000432253027    0.1100
     36 H36       -11.3928   -0.8758   52.3246 H       1  ZINC000432253027    0.1100
     37 H37       -10.8025   -1.1177   53.9863 H       1  ZINC000432253027    0.1300
     38 H38        -9.7739    0.8112   54.3149 H       1  ZINC000432253027    0.1500
     39 H39        -8.1955    1.6068   54.1041 H       1  ZINC000432253027    0.1600
     40 H40       -14.1014   -5.5413   54.4394 H       1  ZINC000432253027    0.1800
@<TRIPOS>BOND
     1     1     2    1
     2     1    27    1
     3     1    28    1
     4     1    29    1
     5     2     3    1
     6     3     8   ar
     7     3     4   ar
     8     4     5   ar
     9     4    30    1
    10     5     6   ar
    11     5    31    1
    12     6     7   ar
    13     6    32    1
    14     7     8   ar
    15     7    33    1
    16     8     9    1
    17     9    26    1
    18     9    10    2
    19    10    11    1
    20    11    12    1
    21    11    25    2
    22    12    13    1
    23    12    34    1
    24    12    35    1
    25    13    14    1
    26    14    15    1
    27    14    36    1
    28    14    37    1
    29    15    19    1
    30    15    16    2
    31    16    17    1
    32    17    18    2
    33    18    19    1
    34    19    20    1
    35    20    21    1
    36    20    38    1
    37    20    39    1
    38    21    22    1
    39    21    23    1
    40    21    24    1
    41    25    26    1
    42    25    40    1
@<TRIPOS>SUBSTRUCTURE
     1 ZINC000432253027        1 TEMP              0 ****  ****    0 ROOT


##########                                Name:    ZINC000505965769
##########                DOCK_Rotatable_Bonds:                   9
##########                         Heavy_Atoms:                  29
##########                    Molecular_Weight:              419.88
##########                DOCK_Rotatable_Bonds:                   9
##########                       Formal_Charge:               -0.02
##########                     HBond_Acceptors:                   7
##########                        HBond_Donors:                   1
##########                         Heavy_Atoms:                  29
##########                          Grid_Score:          -36.859295
##########                     Grid_vdw_energy:          -34.386654
##########                      Grid_es_energy:           -2.472639
##########           Internal_energy_repulsive:            8.804441

@<TRIPOS>MOLECULE
ZINC000505965769
 52 54 1 0 0
SMALL
USER_CHARGES


@<TRIPOS>ATOM
      1 C1        -13.8678   -5.0595   56.4613 C.3     1  ZINC000505965769    0.0200
      2 O2        -12.5535   -4.7833   55.9727 O.3     1  ZINC000505965769   -0.3100
      3 C3        -11.7944   -3.9246   56.6986 C.ar    1  ZINC000505965769    0.1800
      4 C4        -12.0789   -2.5632   56.6805 C.ar    1  ZINC000505965769   -0.2200
      5 C5        -11.3204   -1.6915   57.4084 C.ar    1  ZINC000505965769   -0.0200
      6 C6        -10.2508   -2.1665   58.1774 C.ar    1  ZINC000505965769   -0.2100
      7 C7         -9.4346   -1.2317   58.9610 C.2     1  ZINC000505965769    0.3900
      8 O8         -8.4761   -0.6898   58.4519 O.2     1  ZINC000505965769   -0.4400
      9 C9         -9.7872   -0.9451   60.3978 C.3     1  ZINC000505965769   -0.1500
     10 C10       -10.1091    0.5421   60.5570 C.3     1  ZINC000505965769   -0.1300
     11 C11       -11.5908    0.7153   60.7710 C.2     1  ZINC000505965769    0.5200
     12 O12       -12.2719    1.2292   59.9092 O.2     1  ZINC000505965769   -0.5300
     13 N13       -12.1588    0.2989   61.9201 N.am    1  ZINC000505965769   -0.7200
     14 C14       -13.5989    0.4688   62.1288 C.3     1  ZINC000505965769    0.1900
     15 H15       -13.8802    1.4970   61.9016 H       1  ZINC000505965769    0.1100
     16 C16       -14.3520   -0.4702   61.2220 C.ar    1  ZINC000505965769   -0.1000
     17 C17       -14.2262   -1.8372   61.3851 C.ar    1  ZINC000505965769   -0.0900
     18 C18       -14.9164   -2.6991   60.5541 C.ar    1  ZINC000505965769   -0.1500
     19 C19       -15.7346   -2.1931   59.5583 C.ar    1  ZINC000505965769    0.1000
     20 F20       -16.4101   -3.0348   58.7456 F       1  ZINC000505965769   -0.1400
     21 C21       -15.8602   -0.8237   59.3962 C.ar    1  ZINC000505965769   -0.1500
     22 C22       -15.1728    0.0363   60.2315 C.ar    1  ZINC000505965769   -0.0600
     23 C23       -13.9434    0.1560   63.5863 C.3     1  ZINC000505965769    0.0800
     24 H24       -13.5725   -0.8322   63.8585 H       1  ZINC000505965769    0.0700
     25 C25       -13.3422    1.2331   64.5241 C.3     1  ZINC000505965769   -0.1500
     26 C26       -14.2923    1.1223   65.7476 C.3     1  ZINC000505965769   -0.1600
     27 C27       -15.6433    0.7804   65.0833 C.3     1  ZINC000505965769    0.0500
     28 O28       -15.3636    0.2291   63.7897 O.3     1  ZINC000505965769   -0.3700
     29 C29        -9.9631   -3.5387   58.1965 C.ar    1  ZINC000505965769    0.0500
     30 Cl30       -8.6397   -4.1388   59.1462 Cl      1  ZINC000505965769   -0.0200
     31 C31       -10.7386   -4.4096   57.4621 C.ar    1  ZINC000505965769   -0.1600
     32 H32       -14.4395   -4.1328   56.5101 H       1  ZINC000505965769    0.0600
     33 H33       -14.3657   -5.7586   55.7894 H       1  ZINC000505965769    0.1100
     34 H34       -13.8005   -5.4979   57.4570 H       1  ZINC000505965769    0.0600
     35 H35       -12.9029   -2.1940   56.0880 H       1  ZINC000505965769    0.1400
     36 H36       -11.5453   -0.6352   57.3905 H       1  ZINC000505965769    0.1500
     37 H37       -10.6562   -1.5376   60.6838 H       1  ZINC000505965769    0.1100
     38 H38        -8.9438   -1.2048   61.0376 H       1  ZINC000505965769    0.1100
     39 H39        -9.5689    0.9410   61.4157 H       1  ZINC000505965769    0.1000
     40 H40        -9.8069    1.0777   59.6570 H       1  ZINC000505965769    0.1000
     41 H41       -11.6142   -0.1133   62.6089 H       1  ZINC000505965769    0.4000
     42 H42       -13.5880   -2.2316   62.1619 H       1  ZINC000505965769    0.1300
     43 H43       -14.8175   -3.7670   60.6812 H       1  ZINC000505965769    0.1400
     44 H44       -16.4978   -0.4280   58.6196 H       1  ZINC000505965769    0.1400
     45 H45       -15.2708    1.1045   60.1055 H       1  ZINC000505965769    0.1400
     46 H46       -12.3168    0.9862   64.7994 H       1  ZINC000505965769    0.0700
     47 H47       -13.3980    2.2232   64.0717 H       1  ZINC000505965769    0.1000
     48 H48       -13.9742    0.3210   66.4146 H       1  ZINC000505965769    0.0700
     49 H49       -14.3512    2.0714   66.2802 H       1  ZINC000505965769    0.0800
     50 H50       -16.1779    0.0479   65.6882 H       1  ZINC000505965769    0.0700
     51 H51       -16.2435    1.6844   64.9792 H       1  ZINC000505965769    0.0700
     52 H52       -10.5214   -5.4675   57.4736 H       1  ZINC000505965769    0.1500
@<TRIPOS>BOND
     1     1     2    1
     2     1    32    1
     3     1    33    1
     4     1    34    1
     5     2     3    1
     6     3    31   ar
     7     3     4   ar
     8     4     5   ar
     9     4    35    1
    10     5     6   ar
    11     5    36    1
    12     6     7    1
    13     6    29   ar
    14     7     8    2
    15     7     9    1
    16     9    10    1
    17     9    37    1
    18     9    38    1
    19    10    11    1
    20    10    39    1
    21    10    40    1
    22    11    12    2
    23    11    13   am
    24    13    14    1
    25    13    41    1
    26    14    15    1
    27    14    16    1
    28    14    23    1
    29    16    22   ar
    30    16    17   ar
    31    17    18   ar
    32    17    42    1
    33    18    19   ar
    34    18    43    1
    35    19    20    1
    36    19    21   ar
    37    21    22   ar
    38    21    44    1
    39    22    45    1
    40    23    24    1
    41    23    28    1
    42    23    25    1
    43    25    26    1
    44    25    46    1
    45    25    47    1
    46    26    27    1
    47    26    48    1
    48    26    49    1
    49    27    28    1
    50    27    50    1
    51    27    51    1
    52    29    30    1
    53    29    31   ar
    54    31    52    1
@<TRIPOS>SUBSTRUCTURE
     1 ZINC000505965769        1 TEMP              0 ****  ****    0 ROOT


##########                                Name:     oleObject42.pdb
##########                DOCK_Rotatable_Bonds:                   9
##########                         Heavy_Atoms:                  36
##########                    Molecular_Weight:             527.493
##########                DOCK_Rotatable_Bonds:                   9
##########                       Formal_Charge:         9.99384e-05
##########                     HBond_Acceptors:                   8
##########                        HBond_Donors:                   0
##########                         Heavy_Atoms:                  36
##########                          Grid_Score:          -36.853287
##########                     Grid_vdw_energy:          -36.418537
##########                      Grid_es_energy:           -0.434751
##########           Internal_energy_repulsive:           31.485392

@<TRIPOS>MOLECULE
oleObject42.pdb
 68 71 1 0 0
SMALL
NO_CHARGES


@<TRIPOS>ATOM
      1 C          -8.9702    0.8483   52.4076 C.ar    1  UNL        -0.0435
      2 C         -10.1644    1.5629   52.5806 C.ar    1  UNL        -0.0559
      3 C         -11.3589    0.8568   52.8172 C.ar    1  UNL        -0.0272
      4 C         -11.3058   -0.5590   52.8707 C.ar    1  UNL         0.0699
      5 N         -10.1461   -1.2363   52.7019 N.ar    1  UNL        -0.2586
      6 C          -9.0091   -0.5521   52.4767 C.ar    1  UNL         0.0272
      7 C         -12.5646   -1.4054   53.1265 C.3     1  UNL         0.1101
      8 C         -13.5220   -1.4523   51.9197 C.ar    1  UNL         0.0699
      9 C         -14.9289   -1.4207   52.0927 C.ar    1  UNL        -0.0272
     10 C         -15.7465   -1.4777   50.9483 C.ar    1  UNL        -0.0559
     11 C         -15.1474   -1.5648   49.6835 C.ar    1  UNL        -0.0435
     12 C         -13.7474   -1.5940   49.6039 C.ar    1  UNL         0.0272
     13 N         -12.9574   -1.5414   50.6924 N.ar    1  UNL        -0.2586
     14 C         -15.5770   -1.3269   53.4698 C.3     1  UNL        -0.0379
     15 N         -12.2537   -2.7375   53.7154 N.am    1  UNL        -0.2902
     16 C         -12.3420   -3.0021   55.0827 C.2     1  UNL         0.2180
     17 O         -12.3353   -4.1529   55.4882 O.2     1  UNL        -0.2772
     18 C         -12.7861   -1.8364   56.0000 C.3     1  UNL         0.0385
     19 C         -11.6394   -0.8190   56.2131 C.3     1  UNL        -0.0289
     20 C         -10.5579   -1.3505   57.1779 C.3     1  UNL        -0.0010
     21 N         -11.1423   -1.7611   58.4729 N.4     1  UNL        -0.3010
     22 C         -12.2217   -2.7662   58.3528 C.3     1  UNL        -0.0010
     23 C         -13.3307   -2.3198   57.3698 C.3     1  UNL        -0.0289
     24 C         -10.1385   -2.0770   59.5131 C.3     1  UNL         0.0222
     25 C          -9.7277   -0.8653   60.3794 C.3     1  UNL         0.0661
     26 O          -9.7241   -1.2868   61.7524 O.3     1  UNL        -0.3432
     27 C          -9.7779   -0.3348   62.7405 C.ar    1  UNL         0.0937
     28 C          -8.5879    0.0566   63.3768 C.ar    1  UNL        -0.0288
     29 C          -8.6194    1.0269   64.3921 C.ar    1  UNL        -0.0408
     30 C          -9.8430    1.6030   64.7723 C.ar    1  UNL         0.0422
     31 C         -11.0353    1.2100   64.1416 C.ar    1  UNL        -0.0221
     32 C         -11.0059    0.2398   63.1257 C.ar    1  UNL         0.0723
     33 CL        -12.5088   -0.2371   62.3576 Cl      1  UNL        -0.0814
     34 CL         -9.8825    2.8121   66.0378 Cl      1  UNL        -0.0843
     35 C         -11.6806   -3.7442   52.7995 C.3     1  UNL         0.0038
     36 C         -12.6582    1.6314   53.0093 C.3     1  UNL        -0.0379
     37 H          -8.0341    1.3678   52.2250 H       1  UNL         0.0639
     38 H         -10.1599    2.6483   52.5329 H       1  UNL         0.0627
     39 H          -8.1040   -1.1447   52.3491 H       1  UNL         0.0840
     40 H         -13.1150   -0.8672   53.9025 H       1  UNL         0.0643
     41 H         -16.8291   -1.4540   51.0362 H       1  UNL         0.0627
     42 H         -15.7540   -1.6088   48.7838 H       1  UNL         0.0639
     43 H         -13.2422   -1.6613   48.6413 H       1  UNL         0.0840
     44 H         -15.3464   -2.2114   54.0763 H       1  UNL         0.0280
     45 H         -16.6694   -1.2559   53.3976 H       1  UNL         0.0280
     46 H         -15.2295   -0.4396   54.0132 H       1  UNL         0.0280
     47 H         -13.6148   -1.3103   55.5152 H       1  UNL         0.0402
     48 H         -12.0568    0.1069   56.6296 H       1  UNL         0.0288
     49 H         -11.1801   -0.5530   55.2537 H       1  UNL         0.0288
     50 H          -9.8117   -0.5618   57.3391 H       1  UNL         0.0431
     51 H         -10.0485   -2.2011   56.7071 H       1  UNL         0.0431
     52 H         -12.6761   -2.9415   59.3364 H       1  UNL         0.0431
     53 H         -11.8061   -3.7217   58.0119 H       1  UNL         0.0431
     54 H         -13.8871   -1.4951   57.8338 H       1  UNL         0.0288
     55 H         -14.0496   -3.1359   57.2216 H       1  UNL         0.0288
     56 H          -9.2387   -2.4862   59.0363 H       1  UNL         0.0455
     57 H         -10.5367   -2.8579   60.1736 H       1  UNL         0.0455
     58 H         -10.4419   -0.0442   60.2417 H       1  UNL         0.0586
     59 H          -8.7291   -0.5140   60.0922 H       1  UNL         0.0586
     60 H          -7.6435   -0.3919   63.0820 H       1  UNL         0.0652
     61 H          -7.6984    1.3297   64.8822 H       1  UNL         0.0639
     62 H         -11.9800    1.6555   64.4401 H       1  UNL         0.0655
     63 H         -12.0666   -3.6045   51.7821 H       1  UNL         0.0433
     64 H         -11.9507   -4.7534   53.1353 H       1  UNL         0.0433
     65 H         -10.5874   -3.6516   52.7866 H       1  UNL         0.0433
     66 H         -12.4910    2.7151   52.9735 H       1  UNL         0.0280
     67 H         -13.1157    1.4063   53.9803 H       1  UNL         0.0280
     68 H         -13.3837    1.3875   52.2238 H       1  UNL         0.0280
@<TRIPOS>BOND
     1     1     2   ar
     2     1     6   ar
     3     1    37    1
     4     2     3   ar
     5     2    38    1
     6     3     4   ar
     7     3    36    1
     8     4     5   ar
     9     4     7    1
    10     5     6   ar
    11     6    39    1
    12     7     8    1
    13     7    15    1
    14     7    40    1
    15     8     9   ar
    16     8    13   ar
    17     9    10   ar
    18     9    14    1
    19    10    11   ar
    20    10    41    1
    21    11    12   ar
    22    11    42    1
    23    12    13   ar
    24    12    43    1
    25    14    44    1
    26    14    45    1
    27    14    46    1
    28    15    16   am
    29    15    35    1
    30    16    17    2
    31    16    18    1
    32    18    19    1
    33    18    23    1
    34    18    47    1
    35    19    20    1
    36    19    48    1
    37    19    49    1
    38    20    21    1
    39    20    50    1
    40    20    51    1
    41    21    22    1
    42    21    24    1
    43    22    23    1
    44    22    52    1
    45    22    53    1
    46    23    54    1
    47    23    55    1
    48    24    25    1
    49    24    56    1
    50    24    57    1
    51    25    26    1
    52    25    58    1
    53    25    59    1
    54    26    27    1
    55    27    28   ar
    56    27    32   ar
    57    28    29   ar
    58    28    60    1
    59    29    30   ar
    60    29    61    1
    61    30    31   ar
    62    30    34    1
    63    31    32   ar
    64    31    62    1
    65    32    33    1
    66    35    63    1
    67    35    64    1
    68    35    65    1
    69    36    66    1
    70    36    67    1
    71    36    68    1
@<TRIPOS>SUBSTRUCTURE
     1 UNL         1 TEMP              0 ****  ****    0 ROOT


##########                                Name:    ZINC000859496582
##########                DOCK_Rotatable_Bonds:                  10
##########                         Heavy_Atoms:                  26
##########                    Molecular_Weight:             361.438
##########                DOCK_Rotatable_Bonds:                  10
##########                       Formal_Charge:           0.0100006
##########                     HBond_Acceptors:                   6
##########                        HBond_Donors:                   0
##########                         Heavy_Atoms:                  26
##########                          Grid_Score:          -36.834431
##########                     Grid_vdw_energy:          -36.312626
##########                      Grid_es_energy:           -0.521805
##########           Internal_energy_repulsive:           11.568556

@<TRIPOS>MOLECULE
ZINC000859496582
 53 54 1 0 0
SMALL
USER_CHARGES


@<TRIPOS>ATOM
      1 C1         -3.6698    3.5410   49.2944 C.3     1  ZINC000859496582    0.0300
      2 O2         -4.6471    2.4726   49.4030 O.3     1  ZINC000859496582   -0.3600
      3 C3         -5.6380    2.6412   50.2927 C.2     1  ZINC000859496582    0.4600
      4 O4         -5.6876    3.6485   50.9580 O.2     1  ZINC000859496582   -0.5100
      5 C5         -6.6885    1.5740   50.4617 C.3     1  ZINC000859496582   -0.1100
      6 C6         -6.2067    0.5414   51.4829 C.3     1  ZINC000859496582   -0.1100
      7 C7         -7.2380   -0.5832   51.5963 C.3     1  ZINC000859496582   -0.1200
      8 C8         -8.4379   -0.0945   52.4102 C.3     1  ZINC000859496582    0.0700
      9 O9         -9.4065   -1.1688   52.5371 O.3     1  ZINC000859496582   -0.3500
     10 C10       -10.4146   -0.9811   53.4032 C.2     1  ZINC000859496582    0.4700
     11 O11       -10.5843    0.1039   53.9069 O.2     1  ZINC000859496582   -0.5000
     12 C12       -11.3349   -2.1239   53.7473 C.3     1  ZINC000859496582   -0.1000
     13 H13       -10.7710   -3.0566   53.7512 H       1  ZINC000859496582    0.1200
     14 C14       -12.4549   -2.2085   52.7079 C.3     1  ZINC000859496582   -0.1100
     15 C15       -13.3714   -3.3889   53.0378 C.3     1  ZINC000859496582   -0.1300
     16 C16       -14.0054   -3.1685   54.4150 C.3     1  ZINC000859496582    0.1100
     17 N17       -12.9363   -2.9417   55.3969 N.am    1  ZINC000859496582   -0.6100
     18 C18       -12.8655   -3.6849   56.5190 C.2     1  ZINC000859496582    0.5700
     19 O19       -13.6911   -4.5526   56.7263 O.2     1  ZINC000859496582   -0.5300
     20 C20       -11.7837   -3.4447   57.4977 C.ar    1  ZINC000859496582   -0.1400
     21 C21       -11.8216   -2.3191   58.3222 C.ar    1  ZINC000859496582   -0.0900
     22 C22       -10.8092   -2.1011   59.2337 C.ar    1  ZINC000859496582   -0.1200
     23 C23        -9.7577   -2.9951   59.3312 C.ar    1  ZINC000859496582   -0.0600
     24 C24        -8.6551   -2.7504   60.3289 C.3     1  ZINC000859496582   -0.1200
     25 C25        -9.7144   -4.1131   58.5173 C.ar    1  ZINC000859496582   -0.1200
     26 C26       -10.7231   -4.3456   57.6053 C.ar    1  ZINC000859496582   -0.0600
     27 C27       -11.9452   -1.8896   55.1327 C.3     1  ZINC000859496582    0.1100
     28 H28        -3.1782    3.6829   50.2568 H       1  ZINC000859496582    0.0600
     29 H29        -2.9264    3.2782   48.5418 H       1  ZINC000859496582    0.1000
     30 H30        -4.1713    4.4638   49.0029 H       1  ZINC000859496582    0.0600
     31 H31        -7.6146    2.0283   50.8137 H       1  ZINC000859496582    0.1100
     32 H32        -6.8654    1.0833   49.5046 H       1  ZINC000859496582    0.1100
     33 H33        -5.2520    0.1276   51.1584 H       1  ZINC000859496582    0.0800
     34 H34        -6.0837    1.0208   52.4541 H       1  ZINC000859496582    0.0800
     35 H35        -7.5693   -0.8743   50.5997 H       1  ZINC000859496582    0.0800
     36 H36        -6.7864   -1.4413   52.0943 H       1  ZINC000859496582    0.0800
     37 H37        -8.1040    0.2126   53.4013 H       1  ZINC000859496582    0.0700
     38 H38        -8.8996    0.7530   51.9036 H       1  ZINC000859496582    0.0700
     39 H39       -13.0334   -1.2847   52.7213 H       1  ZINC000859496582    0.0800
     40 H40       -12.0216   -2.3509   51.7179 H       1  ZINC000859496582    0.0800
     41 H41       -14.1552   -3.4628   52.2840 H       1  ZINC000859496582    0.0900
     42 H42       -12.7886   -4.3100   53.0489 H       1  ZINC000859496582    0.0700
     43 H43       -14.6606   -2.2982   54.3804 H       1  ZINC000859496582    0.0700
     44 H44       -14.5803   -4.0503   54.6978 H       1  ZINC000859496582    0.1000
     45 H45       -12.6414   -1.6201   58.2465 H       1  ZINC000859496582    0.1300
     46 H46       -10.8372   -1.2306   59.8722 H       1  ZINC000859496582    0.1300
     47 H47        -8.9096   -3.2263   61.2758 H       1  ZINC000859496582    0.0800
     48 H48        -7.7230   -3.1698   59.9504 H       1  ZINC000859496582    0.0700
     49 H49        -8.5351   -1.6778   60.4819 H       1  ZINC000859496582    0.0700
     50 H50        -8.8911   -4.8073   58.5986 H       1  ZINC000859496582    0.1300
     51 H51       -10.6883   -5.2189   56.9707 H       1  ZINC000859496582    0.1300
     52 H52       -11.1614   -1.9276   55.8893 H       1  ZINC000859496582    0.1100
     53 H53       -12.4320   -0.9146   55.1566 H       1  ZINC000859496582    0.0800
@<TRIPOS>BOND
     1     1     2    1
     2     1    28    1
     3     1    29    1
     4     1    30    1
     5     2     3    1
     6     3     4    2
     7     3     5    1
     8     5     6    1
     9     5    31    1
    10     5    32    1
    11     6     7    1
    12     6    33    1
    13     6    34    1
    14     7     8    1
    15     7    35    1
    16     7    36    1
    17     8     9    1
    18     8    37    1
    19     8    38    1
    20     9    10    1
    21    10    11    2
    22    10    12    1
    23    12    13    1
    24    12    27    1
    25    12    14    1
    26    14    15    1
    27    14    39    1
    28    14    40    1
    29    15    16    1
    30    15    41    1
    31    15    42    1
    32    16    17    1
    33    16    43    1
    34    16    44    1
    35    17    18   am
    36    17    27    1
    37    18    19    2
    38    18    20    1
    39    20    26   ar
    40    20    21   ar
    41    21    22   ar
    42    21    45    1
    43    22    23   ar
    44    22    46    1
    45    23    24    1
    46    23    25   ar
    47    24    47    1
    48    24    48    1
    49    24    49    1
    50    25    26   ar
    51    25    50    1
    52    26    51    1
    53    27    52    1
    54    27    53    1
@<TRIPOS>SUBSTRUCTURE
     1 ZINC000859496582        1 TEMP              0 ****  ****    0 ROOT


##########                                Name:    ZINC000482187991
##########                DOCK_Rotatable_Bonds:                  11
##########                         Heavy_Atoms:                  29
##########                    Molecular_Weight:             407.414
##########                DOCK_Rotatable_Bonds:                  11
##########                       Formal_Charge:           0.0299996
##########                     HBond_Acceptors:                   8
##########                        HBond_Donors:                   1
##########                         Heavy_Atoms:                  29
##########                          Grid_Score:          -36.823395
##########                     Grid_vdw_energy:          -35.776054
##########                      Grid_es_energy:           -1.047340
##########           Internal_energy_repulsive:           14.894370

@<TRIPOS>MOLECULE
ZINC000482187991
 52 53 1 0 0
SMALL
USER_CHARGES


@<TRIPOS>ATOM
      1 C1         -9.1864   -1.5125   61.4088 C.3     1  ZINC000482187991    0.0200
      2 O2        -10.5949   -1.5570   61.6463 O.3     1  ZINC000482187991   -0.3000
      3 C3        -11.3681   -2.1068   60.6718 C.ar    1  ZINC000482187991    0.1400
      4 C4        -10.7836   -2.8462   59.6624 C.ar    1  ZINC000482187991   -0.1700
      5 C5        -11.5805   -3.4121   58.6599 C.ar    1  ZINC000482187991   -0.1000
      6 C6        -10.9627   -4.1994   57.5851 C.2     1  ZINC000482187991    0.4000
      7 O7        -10.6973   -5.3691   57.7657 O.2     1  ZINC000482187991   -0.4500
      8 C8        -10.6586   -3.5541   56.2576 C.3     1  ZINC000482187991   -0.1500
      9 C9        -11.8956   -3.6262   55.3601 C.3     1  ZINC000482187991   -0.1300
     10 C10       -11.5395   -3.1521   53.9747 C.2     1  ZINC000482187991    0.5200
     11 O11       -11.1623   -3.9470   53.1400 O.2     1  ZINC000482187991   -0.5200
     12 N12       -11.6399   -1.8447   53.6632 N.am    1  ZINC000482187991   -0.7200
     13 C13       -11.2920   -1.3835   52.3169 C.3     1  ZINC000482187991    0.1500
     14 H14       -11.1008   -2.2444   51.6762 H       1  ZINC000482187991    0.1300
     15 C15       -10.0565   -0.5233   52.3843 C.ar    1  ZINC000482187991   -0.1100
     16 C16        -8.8152   -1.0751   52.1283 C.ar    1  ZINC000482187991   -0.1000
     17 C17        -7.6819   -0.2861   52.1903 C.ar    1  ZINC000482187991   -0.1200
     18 C18        -7.7899    1.0550   52.5078 C.ar    1  ZINC000482187991   -0.1100
     19 C19        -9.0313    1.6071   52.7629 C.ar    1  ZINC000482187991   -0.1200
     20 C20       -10.1651    0.8189   52.6968 C.ar    1  ZINC000482187991   -0.1000
     21 C21       -12.4512   -0.5672   51.7420 C.3     1  ZINC000482187991    0.2500
     22 F22       -13.1805   -1.3585   50.8480 F       1  ZINC000482187991   -0.1900
     23 F23       -13.2871   -0.1475   52.7823 F       1  ZINC000482187991   -0.2000
     24 C24       -12.9680   -3.2260   58.6850 C.ar    1  ZINC000482187991   -0.1900
     25 C25       -13.5454   -2.4853   59.6977 C.ar    1  ZINC000482187991    0.1400
     26 O26       -14.8931   -2.3043   59.7232 O.3     1  ZINC000482187991   -0.3000
     27 C27       -15.6999   -3.4662   59.9260 C.3     1  ZINC000482187991    0.0200
     28 C28       -12.7496   -1.9282   60.6964 C.ar    1  ZINC000482187991    0.0600
     29 O29       -13.3212   -1.2007   61.6911 O.3     1  ZINC000482187991   -0.3100
     30 C30       -13.4374    0.2078   61.4799 C.3     1  ZINC000482187991    0.0400
     31 H31        -8.6886   -1.0513   62.2618 H       1  ZINC000482187991    0.1100
     32 H32        -8.8088   -2.5259   61.2721 H       1  ZINC000482187991    0.0600
     33 H33        -8.9875   -0.9265   60.5116 H       1  ZINC000482187991    0.0600
     34 H34        -9.7129   -2.9874   59.6461 H       1  ZINC000482187991    0.1500
     35 H35       -10.3843   -2.5109   56.4150 H       1  ZINC000482187991    0.1100
     36 H36        -9.8317   -4.0790   55.7794 H       1  ZINC000482187991    0.1100
     37 H37       -12.2500   -4.6559   55.3119 H       1  ZINC000482187991    0.1000
     38 H38       -12.6802   -2.9909   55.7710 H       1  ZINC000482187991    0.1000
     39 H39       -11.9427   -1.2090   54.3305 H       1  ZINC000482187991    0.4100
     40 H40        -8.7308   -2.1229   51.8803 H       1  ZINC000482187991    0.1200
     41 H41        -6.7120   -0.7173   51.9910 H       1  ZINC000482187991    0.1300
     42 H42        -6.9044    1.6714   52.5569 H       1  ZINC000482187991    0.1300
     43 H43        -9.1156    2.6547   53.0113 H       1  ZINC000482187991    0.1300
     44 H44       -11.1349    1.2503   52.8960 H       1  ZINC000482187991    0.1300
     45 H45       -12.0575    0.3040   51.2183 H       1  ZINC000482187991    0.1200
     46 H46       -13.5858   -3.6608   57.9133 H       1  ZINC000482187991    0.1500
     47 H47       -15.5155   -4.1812   59.1241 H       1  ZINC000482187991    0.0600
     48 H48       -15.4474   -3.9214   60.8838 H       1  ZINC000482187991    0.0600
     49 H49       -16.7523   -3.1825   59.9248 H       1  ZINC000482187991    0.1100
     50 H50       -12.4458    0.6368   61.3360 H       1  ZINC000482187991    0.0500
     51 H51       -14.0456    0.3936   60.5945 H       1  ZINC000482187991    0.0500
     52 H52       -13.9097    0.6676   62.3481 H       1  ZINC000482187991    0.1000
@<TRIPOS>BOND
     1     1     2    1
     2     1    31    1
     3     1    32    1
     4     1    33    1
     5     2     3    1
     6     3    28   ar
     7     3     4   ar
     8     4     5   ar
     9     4    34    1
    10     5     6    1
    11     5    24   ar
    12     6     7    2
    13     6     8    1
    14     8     9    1
    15     8    35    1
    16     8    36    1
    17     9    10    1
    18     9    37    1
    19     9    38    1
    20    10    11    2
    21    10    12   am
    22    12    13    1
    23    12    39    1
    24    13    14    1
    25    13    15    1
    26    13    21    1
    27    15    20   ar
    28    15    16   ar
    29    16    17   ar
    30    16    40    1
    31    17    18   ar
    32    17    41    1
    33    18    19   ar
    34    18    42    1
    35    19    20   ar
    36    19    43    1
    37    20    44    1
    38    21    22    1
    39    21    23    1
    40    21    45    1
    41    24    25   ar
    42    24    46    1
    43    25    26    1
    44    25    28   ar
    45    26    27    1
    46    27    47    1
    47    27    48    1
    48    27    49    1
    49    28    29    1
    50    29    30    1
    51    30    50    1
    52    30    51    1
    53    30    52    1
@<TRIPOS>SUBSTRUCTURE
     1 ZINC000482187991        1 TEMP              0 ****  ****    0 ROOT


##########                                Name:    ZINC000826435081
##########                DOCK_Rotatable_Bonds:                   7
##########                         Heavy_Atoms:                  28
##########                    Molecular_Weight:             388.361
##########                DOCK_Rotatable_Bonds:                   7
##########                       Formal_Charge:           0.0099996
##########                     HBond_Acceptors:                  12
##########                        HBond_Donors:                   3
##########                         Heavy_Atoms:                  28
##########                          Grid_Score:          -36.719360
##########                     Grid_vdw_energy:          -34.028297
##########                      Grid_es_energy:           -2.691063
##########           Internal_energy_repulsive:            5.672809

@<TRIPOS>MOLECULE
ZINC000826435081
 45 48 1 0 0
SMALL
USER_CHARGES


@<TRIPOS>ATOM
      1 O1        -10.1420   -0.0738   62.7682 O.2     1  ZINC000826435081   -0.5700
      2 C2         -9.0379   -0.5833   62.7803 C.2     1  ZINC000826435081    0.7200
      3 N3         -8.2234   -0.4013   63.8385 N.am    1  ZINC000826435081   -0.7300
      4 C4         -8.6656    0.4153   64.9715 C.3     1  ZINC000826435081    0.1500
      5 C5         -7.4538    0.8169   65.8147 C.3     1  ZINC000826435081    0.0400
      6 H6         -6.9951   -0.0752   66.2412 H       1  ZINC000826435081    0.0800
      7 C7         -7.9017    1.7512   66.9424 C.3     1  ZINC000826435081    0.0300
      8 O8         -6.7503    2.2102   67.6569 O.3     1  ZINC000826435081   -0.3800
      9 C9         -5.7991    2.8913   66.8331 C.3     1  ZINC000826435081    0.0200
     10 C10        -5.3511    1.9570   65.7054 C.3     1  ZINC000826435081    0.0200
     11 O11        -6.5018    1.4965   64.9906 O.3     1  ZINC000826435081   -0.3700
     12 N12        -8.6310   -1.3346   61.7380 N.am    1  ZINC000826435081   -0.6400
     13 C13        -9.4779   -1.5238   60.6379 C.2     1  ZINC000826435081    0.3300
     14 N14       -10.5327   -2.3037   60.6040 N.2     1  ZINC000826435081   -0.2800
     15 N15       -11.1033   -2.2134   59.3278 N.pl3   1  ZINC000826435081   -0.3300
     16 C16       -12.2444   -2.8924   58.8863 C.ar    1  ZINC000826435081    0.2200
     17 C17       -12.1272   -3.9310   57.9748 C.ar    1  ZINC000826435081   -0.1300
     18 C18       -13.2544   -4.6012   57.5390 C.ar    1  ZINC000826435081   -0.0500
     19 C19       -14.5054   -4.2420   58.0070 C.ar    1  ZINC000826435081   -0.1500
     20 C20       -14.6385   -3.2084   58.9161 C.ar    1  ZINC000826435081    0.1500
     21 F21       -15.8621   -2.8609   59.3711 F       1  ZINC000826435081   -0.1100
     22 C22       -13.5071   -2.5297   59.3671 C.ar    1  ZINC000826435081   -0.0500
     23 C23       -13.6429   -1.4200   60.3424 C.2     1  ZINC000826435081    0.2100
     24 N24       -14.0246   -0.1850   60.0822 N.2     1  ZINC000826435081   -0.2800
     25 N25       -14.0142    0.4725   61.1905 N.pl3   1  ZINC000826435081   -0.2300
     26 N26       -13.6383   -0.3060   62.1443 N.2     1  ZINC000826435081   -0.0500
     27 N27       -13.4070   -1.4792   61.6610 N.2     1  ZINC000826435081   -0.2300
     28 C28       -10.3533   -1.3505   58.5948 C.2     1  ZINC000826435081    0.0700
     29 C29        -9.3478   -0.9066   59.3827 C.2     1  ZINC000826435081   -0.2400
     30 H30        -7.3442   -0.8111   63.8500 H       1  ZINC000826435081    0.4000
     31 H31        -9.1636    1.3114   64.6011 H       1  ZINC000826435081    0.0800
     32 H32        -9.3603   -0.1592   65.5844 H       1  ZINC000826435081    0.0900
     33 H33        -8.4321    2.6043   66.5195 H       1  ZINC000826435081    0.0700
     34 H34        -8.5611    1.2116   67.6222 H       1  ZINC000826435081    0.1100
     35 H35        -6.2587    3.7827   66.4065 H       1  ZINC000826435081    0.0600
     36 H36        -4.9357    3.1772   67.4338 H       1  ZINC000826435081    0.1100
     37 H37        -4.6917    2.4965   65.0256 H       1  ZINC000826435081    0.1100
     38 H38        -4.8207    1.1038   66.1283 H       1  ZINC000826435081    0.0600
     39 H39        -7.7519   -1.7442   61.7494 H       1  ZINC000826435081    0.4100
     40 H40       -11.1535   -4.2163   57.6048 H       1  ZINC000826435081    0.1500
     41 H41       -13.1580   -5.4094   56.8290 H       1  ZINC000826435081    0.1500
     42 H42       -15.3815   -4.7704   57.6608 H       1  ZINC000826435081    0.1500
     43 H43       -14.2523    1.4075   61.2903 H       1  ZINC000826435081    0.4800
     44 H44       -10.5308   -1.0659   57.5681 H       1  ZINC000826435081    0.1800
     45 H45        -8.5767   -0.2072   59.0954 H       1  ZINC000826435081    0.1800
@<TRIPOS>BOND
     1     1     2    2
     2     2     3   am
     3     2    12   am
     4     3     4    1
     5     3    30    1
     6     4     5    1
     7     4    31    1
     8     4    32    1
     9     5     6    1
    10     5    11    1
    11     5     7    1
    12     7     8    1
    13     7    33    1
    14     7    34    1
    15     8     9    1
    16     9    10    1
    17     9    35    1
    18     9    36    1
    19    10    11    1
    20    10    37    1
    21    10    38    1
    22    12    13    1
    23    12    39    1
    24    13    29    1
    25    13    14    2
    26    14    15    1
    27    15    16    1
    28    15    28    1
    29    16    22   ar
    30    16    17   ar
    31    17    18   ar
    32    17    40    1
    33    18    19   ar
    34    18    41    1
    35    19    20   ar
    36    19    42    1
    37    20    21    1
    38    20    22   ar
    39    22    23    1
    40    23    27    1
    41    23    24    2
    42    24    25    1
    43    25    26    1
    44    25    43    1
    45    26    27    2
    46    28    29    2
    47    28    44    1
    48    29    45    1
@<TRIPOS>SUBSTRUCTURE
     1 ZINC000826435081        1 TEMP              0 ****  ****    0 ROOT


##########                                Name:    ZINC000110375116
##########                DOCK_Rotatable_Bonds:                  10
##########                         Heavy_Atoms:                  27
##########                    Molecular_Weight:             396.511
##########                DOCK_Rotatable_Bonds:                  10
##########                       Formal_Charge:        -2.23517e-07
##########                     HBond_Acceptors:                   9
##########                        HBond_Donors:                   0
##########                         Heavy_Atoms:                  27
##########                          Grid_Score:          -36.686676
##########                     Grid_vdw_energy:          -34.460773
##########                      Grid_es_energy:           -2.225902
##########           Internal_energy_repulsive:           38.783108

@<TRIPOS>MOLECULE
ZINC000110375116
 55 56 1 0 0
SMALL
USER_CHARGES


@<TRIPOS>ATOM
      1 C1         -8.4567    1.4352   54.2336 C.3     1  ZINC000110375116   -0.1700
      2 C2         -8.4632    0.5064   53.0177 C.3     1  ZINC000110375116    0.1000
      3 N3         -9.7518   -0.1861   52.9391 N.am    1  ZINC000110375116   -0.6200
      4 C4        -10.9624    0.4585   53.4538 C.3     1  ZINC000110375116    0.1100
      5 C5        -11.5856    1.3234   52.3564 C.3     1  ZINC000110375116   -0.1700
      6 C6         -9.8235   -1.4164   52.3934 C.2     1  ZINC000110375116    0.5100
      7 O7         -8.8210   -1.9508   51.9687 O.2     1  ZINC000110375116   -0.5300
      8 C8        -11.1493   -2.1281   52.3110 C.3     1  ZINC000110375116   -0.1400
      9 C9        -11.3996   -2.8923   53.6127 C.3     1  ZINC000110375116   -0.0900
     10 C10       -12.8593   -3.3481   53.6638 C.3     1  ZINC000110375116   -0.1400
     11 C11       -13.0631   -4.2480   54.8553 C.2     1  ZINC000110375116    0.5200
     12 O12       -13.1727   -5.4457   54.6990 O.2     1  ZINC000110375116   -0.5300
     13 N13       -13.1235   -3.7219   56.0947 N.am    1  ZINC000110375116   -0.6200
     14 C14       -12.9967   -2.2720   56.2988 C.3     1  ZINC000110375116    0.0900
     15 C15       -14.2231   -1.7773   57.0757 C.3     1  ZINC000110375116    0.1000
     16 N16       -14.4175   -2.6431   58.2471 N.am    1  ZINC000110375116   -1.0000
     17 S17       -14.4928   -1.9965   59.7698 S.o2    1  ZINC000110375116    2.7000
     18 O18       -15.4947   -0.9895   59.7290 O.2     1  ZINC000110375116   -0.9400
     19 O19       -14.5309   -3.0947   60.6707 O.2     1  ZINC000110375116   -0.9500
     20 C20       -12.9656   -1.1673   60.0605 C.ar    1  ZINC000110375116   -0.7400
     21 C21       -11.8862   -1.8520   60.5969 C.ar    1  ZINC000110375116    0.0200
     22 C22       -10.7038   -1.1589   60.8081 C.ar    1  ZINC000110375116   -0.1900
     23 C23       -10.6412    0.1817   60.4790 C.ar    1  ZINC000110375116    0.1500
     24 N24       -11.6885    0.8011   59.9704 N.ar    1  ZINC000110375116   -0.4900
     25 C25       -12.8268    0.1728   59.7511 C.ar    1  ZINC000110375116    0.2000
     26 C26       -14.5444   -4.0929   58.0430 C.3     1  ZINC000110375116    0.1000
     27 C27       -13.3236   -4.5871   57.2656 C.3     1  ZINC000110375116    0.1000
     28 H28        -7.4980    1.9505   54.2921 H       1  ZINC000110375116    0.0700
     29 H29        -9.2577    2.1679   54.1354 H       1  ZINC000110375116    0.0600
     30 H30        -8.6098    0.8488   55.1395 H       1  ZINC000110375116    0.0600
     31 H31        -8.3101    1.0929   52.1117 H       1  ZINC000110375116    0.0800
     32 H32        -7.6623   -0.2263   53.1159 H       1  ZINC000110375116    0.0800
     33 H33       -11.6763   -0.3044   53.7644 H       1  ZINC000110375116    0.0800
     34 H34       -10.7054    1.0848   54.3081 H       1  ZINC000110375116    0.0800
     35 H35       -12.4864    1.8031   52.7393 H       1  ZINC000110375116    0.0700
     36 H36       -10.8717    2.0864   52.0458 H       1  ZINC000110375116    0.0500
     37 H37       -11.8426    0.6971   51.5022 H       1  ZINC000110375116    0.0600
     38 H38       -11.9446   -1.3983   52.1595 H       1  ZINC000110375116    0.0900
     39 H39       -11.1346   -2.8282   51.4757 H       1  ZINC000110375116    0.0900
     40 H40       -10.7454   -3.7632   53.6542 H       1  ZINC000110375116    0.0800
     41 H41       -11.1923   -2.2413   54.4619 H       1  ZINC000110375116    0.0800
     42 H42       -13.5090   -2.4773   53.7509 H       1  ZINC000110375116    0.1000
     43 H43       -13.1020   -3.8928   52.7513 H       1  ZINC000110375116    0.1000
     44 H44       -12.0924   -2.0607   56.8695 H       1  ZINC000110375116    0.0800
     45 H45       -12.9484   -1.7695   55.3327 H       1  ZINC000110375116    0.1000
     46 H46       -14.0591   -0.7506   57.4027 H       1  ZINC000110375116    0.1100
     47 H47       -15.1044   -1.8237   56.4361 H       1  ZINC000110375116    0.0800
     48 H48       -11.9643   -2.9002   60.8448 H       1  ZINC000110375116    0.1500
     49 H49        -9.8428   -1.6604   61.2247 H       1  ZINC000110375116    0.1500
     50 H50        -9.7241    0.7288   60.6408 H       1  ZINC000110375116    0.1700
     51 H51       -13.6630    0.7134   59.3330 H       1  ZINC000110375116    0.1700
     52 H52       -14.5927   -4.5956   59.0091 H       1  ZINC000110375116    0.1100
     53 H53       -15.4487   -4.3043   57.4723 H       1  ZINC000110375116    0.0800
     54 H54       -13.4889   -5.6139   56.9392 H       1  ZINC000110375116    0.1100
     55 H55       -12.4406   -4.5409   57.9031 H       1  ZINC000110375116    0.0800
@<TRIPOS>BOND
     1     1     2    1
     2     1    28    1
     3     1    29    1
     4     1    30    1
     5     2     3    1
     6     2    31    1
     7     2    32    1
     8     3     4    1
     9     3     6   am
    10     4     5    1
    11     4    33    1
    12     4    34    1
    13     5    35    1
    14     5    36    1
    15     5    37    1
    16     6     7    2
    17     6     8    1
    18     8     9    1
    19     8    38    1
    20     8    39    1
    21     9    10    1
    22     9    40    1
    23     9    41    1
    24    10    11    1
    25    10    42    1
    26    10    43    1
    27    11    12    2
    28    11    13   am
    29    13    27    1
    30    13    14    1
    31    14    15    1
    32    14    44    1
    33    14    45    1
    34    15    16    1
    35    15    46    1
    36    15    47    1
    37    16    17   am
    38    16    26    1
    39    17    18    2
    40    17    19    2
    41    17    20    1
    42    20    25   ar
    43    20    21   ar
    44    21    22   ar
    45    21    48    1
    46    22    23   ar
    47    22    49    1
    48    23    24   ar
    49    23    50    1
    50    24    25   ar
    51    25    51    1
    52    26    27    1
    53    26    52    1
    54    26    53    1
    55    27    54    1
    56    27    55    1
@<TRIPOS>SUBSTRUCTURE
     1 ZINC000110375116        1 TEMP              0 ****  ****    0 ROOT


##########                                Name:    ZINC000298969660
##########                DOCK_Rotatable_Bonds:                  10
##########                         Heavy_Atoms:                  29
##########                    Molecular_Weight:             397.474
##########                DOCK_Rotatable_Bonds:                  10
##########                       Formal_Charge:          -0.0100008
##########                     HBond_Acceptors:                   7
##########                        HBond_Donors:                   2
##########                         Heavy_Atoms:                  29
##########                          Grid_Score:          -36.675472
##########                     Grid_vdw_energy:          -35.864002
##########                      Grid_es_energy:           -0.811471
##########           Internal_energy_repulsive:           16.820221

@<TRIPOS>MOLECULE
ZINC000298969660
 56 58 1 0 0
SMALL
USER_CHARGES


@<TRIPOS>ATOM
      1 C1         -9.1981   -4.1400   59.5685 C.3     1  ZINC000298969660    0.0800
      2 N2         -9.5899   -2.8786   58.9347 N.am    1  ZINC000298969660   -0.6300
      3 C3         -9.1091   -1.6058   59.4776 C.3     1  ZINC000298969660    0.1400
      4 C4         -9.9448   -1.2249   60.7012 C.3     1  ZINC000298969660    0.0700
      5 H5        -10.0579   -2.0941   61.3490 H       1  ZINC000298969660    0.0500
      6 C6        -11.3254   -0.7436   60.2468 C.3     1  ZINC000298969660   -0.1500
      7 C7        -12.1343   -0.3076   61.4723 C.3     1  ZINC000298969660   -0.1200
      8 C8        -11.3579    0.7788   62.2227 C.3     1  ZINC000298969660   -0.1600
      9 C9         -9.9761    0.2388   62.6007 C.3     1  ZINC000298969660    0.0600
     10 O10        -9.2890   -0.1776   61.4190 O.3     1  ZINC000298969660   -0.3600
     11 C11       -10.3927   -2.8894   57.8522 C.2     1  ZINC000298969660    0.7100
     12 O12       -10.7167   -1.8426   57.3252 O.2     1  ZINC000298969660   -0.5400
     13 N13       -10.8364   -4.0604   57.3537 N.am    1  ZINC000298969660   -0.6900
     14 C14       -11.6699   -4.0714   56.2298 C.ar    1  ZINC000298969660    0.2000
     15 C15       -13.0234   -4.3488   56.3705 C.ar    1  ZINC000298969660   -0.1800
     16 C16       -13.8463   -4.3603   55.2607 C.ar    1  ZINC000298969660   -0.0600
     17 C17       -13.3255   -4.0956   54.0086 C.ar    1  ZINC000298969660   -0.2300
     18 C18       -11.9734   -3.8177   53.8619 C.ar    1  ZINC000298969660    0.1500
     19 O19       -11.4625   -3.5580   52.6297 O.3     1  ZINC000298969660   -0.2900
     20 C20       -11.4367   -2.1913   52.2129 C.3     1  ZINC000298969660    0.0400
     21 C21       -12.8073   -1.7859   51.7352 C.2     1  ZINC000298969660    0.5100
     22 O22       -13.7124   -1.6533   52.5315 O.2     1  ZINC000298969660   -0.4900
     23 N23       -13.0271   -1.5707   50.4230 N.am    1  ZINC000298969660   -0.6700
     24 C24       -14.2998   -1.1942   49.9794 C.ar    1  ZINC000298969660    0.1400
     25 C25       -14.9048   -1.8825   48.9360 C.ar    1  ZINC000298969660   -0.1400
     26 C26       -16.1609   -1.5085   48.5005 C.ar    1  ZINC000298969660   -0.1000
     27 C27       -16.8159   -0.4495   49.1018 C.ar    1  ZINC000298969660   -0.1300
     28 C28       -16.2160    0.2383   50.1407 C.ar    1  ZINC000298969660   -0.1000
     29 C29       -14.9627   -0.1351   50.5854 C.ar    1  ZINC000298969660   -0.1200
     30 C30       -11.1460   -3.7997   54.9735 C.ar    1  ZINC000298969660   -0.1500
     31 H31        -9.9256   -4.4020   60.3368 H       1  ZINC000298969660    0.0600
     32 H32        -9.1633   -4.9288   58.8170 H       1  ZINC000298969660    0.0700
     33 H33        -8.2139   -4.0278   60.0233 H       1  ZINC000298969660    0.0800
     34 H34        -8.0635   -1.7069   59.7689 H       1  ZINC000298969660    0.1000
     35 H35        -9.2012   -0.8290   58.7186 H       1  ZINC000298969660    0.0900
     36 H36       -11.2112    0.1004   59.5666 H       1  ZINC000298969660    0.0800
     37 H37       -11.8447   -1.5555   59.7376 H       1  ZINC000298969660    0.0700
     38 H38       -13.0977    0.0886   61.1512 H       1  ZINC000298969660    0.0700
     39 H39       -12.2911   -1.1633   62.1291 H       1  ZINC000298969660    0.0600
     40 H40       -11.2444    1.6536   61.5824 H       1  ZINC000298969660    0.0700
     41 H41       -11.9005    1.0558   63.1266 H       1  ZINC000298969660    0.0700
     42 H42        -9.4032    1.0218   63.0975 H       1  ZINC000298969660    0.0900
     43 H43       -10.0897   -0.6112   63.2737 H       1  ZINC000298969660    0.0400
     44 H44       -10.5779   -4.8954   57.7742 H       1  ZINC000298969660    0.4100
     45 H45       -13.4330   -4.5561   57.3482 H       1  ZINC000298969660    0.1300
     46 H46       -14.8985   -4.5768   55.3720 H       1  ZINC000298969660    0.1300
     47 H47       -13.9711   -4.1052   53.1429 H       1  ZINC000298969660    0.1300
     48 H48       -11.1432   -1.5609   53.0522 H       1  ZINC000298969660    0.1000
     49 H49       -10.7191   -2.0727   51.4010 H       1  ZINC000298969660    0.1000
     50 H50       -12.3033   -1.6767   49.7862 H       1  ZINC000298969660    0.4100
     51 H51       -14.3934   -2.7093   48.4655 H       1  ZINC000298969660    0.1300
     52 H52       -16.6319   -2.0434   47.6891 H       1  ZINC000298969660    0.1300
     53 H53       -17.7979   -0.1587   48.7592 H       1  ZINC000298969660    0.1200
     54 H54       -16.7298    1.0653   50.6079 H       1  ZINC000298969660    0.1300
     55 H55       -14.4947    0.4024   51.3967 H       1  ZINC000298969660    0.1300
     56 H56       -10.0939   -3.5837   54.8613 H       1  ZINC000298969660    0.1500
@<TRIPOS>BOND
     1     1     2    1
     2     1    31    1
     3     1    32    1
     4     1    33    1
     5     2     3    1
     6     2    11   am
     7     3     4    1
     8     3    34    1
     9     3    35    1
    10     4     5    1
    11     4    10    1
    12     4     6    1
    13     6     7    1
    14     6    36    1
    15     6    37    1
    16     7     8    1
    17     7    38    1
    18     7    39    1
    19     8     9    1
    20     8    40    1
    21     8    41    1
    22     9    10    1
    23     9    42    1
    24     9    43    1
    25    11    12    2
    26    11    13   am
    27    13    14    1
    28    13    44    1
    29    14    30   ar
    30    14    15   ar
    31    15    16   ar
    32    15    45    1
    33    16    17   ar
    34    16    46    1
    35    17    18   ar
    36    17    47    1
    37    18    19    1
    38    18    30   ar
    39    19    20    1
    40    20    21    1
    41    20    48    1
    42    20    49    1
    43    21    22    2
    44    21    23   am
    45    23    24    1
    46    23    50    1
    47    24    29   ar
    48    24    25   ar
    49    25    26   ar
    50    25    51    1
    51    26    27   ar
    52    26    52    1
    53    27    28   ar
    54    27    53    1
    55    28    29   ar
    56    28    54    1
    57    29    55    1
    58    30    56    1
@<TRIPOS>SUBSTRUCTURE
     1 ZINC000298969660        1 TEMP              0 ****  ****    0 ROOT


##########                                Name:    ZINC000572257265
##########                DOCK_Rotatable_Bonds:                  11
##########                         Heavy_Atoms:                  24
##########                    Molecular_Weight:             393.509
##########                DOCK_Rotatable_Bonds:                  11
##########                       Formal_Charge:          -0.0100002
##########                     HBond_Acceptors:                  11
##########                        HBond_Donors:                   3
##########                         Heavy_Atoms:                  24
##########                          Grid_Score:          -36.670612
##########                     Grid_vdw_energy:          -36.846489
##########                      Grid_es_energy:            0.175876
##########           Internal_energy_repulsive:            7.754890

@<TRIPOS>MOLECULE
ZINC000572257265
 43 43 1 0 0
SMALL
USER_CHARGES


@<TRIPOS>ATOM
      1 C1         -9.2668    0.2585   52.7042 C.3     1  ZINC000572257265   -0.1300
      2 S2         -9.7230   -1.4958   52.7736 S.3     1  ZINC000572257265   -0.2200
      3 C3        -11.3356   -1.4655   53.6039 C.3     1  ZINC000572257265   -0.1300
      4 C4        -11.8350   -2.8982   53.8005 C.3     1  ZINC000572257265    0.1500
      5 C5        -12.1146   -3.5326   52.4365 C.3     1  ZINC000572257265   -0.1500
      6 O6        -10.8385   -3.6602   54.4849 O.3     1  ZINC000572257265   -0.5400
      7 C7        -13.1216   -2.8808   54.6283 C.3     1  ZINC000572257265    0.0900
      8 N8        -13.4111   -4.2339   55.1094 N.am    1  ZINC000572257265   -1.1100
      9 S9        -13.9409   -4.4652   56.6613 S.o2    1  ZINC000572257265    2.6900
     10 O10       -15.0716   -3.6212   56.8293 O.2     1  ZINC000572257265   -0.9400
     11 O11       -13.9829   -5.8709   56.8654 O.2     1  ZINC000572257265   -0.9500
     12 C12       -12.6915   -3.8433   57.7369 C.ar    1  ZINC000572257265   -0.6300
     13 C13       -13.0013   -2.8658   58.6638 C.ar    1  ZINC000572257265   -0.0400
     14 C14       -12.0211   -2.3778   59.5077 C.ar    1  ZINC000572257265   -0.0400
     15 C15       -10.7311   -2.8678   59.4247 C.ar    1  ZINC000572257265   -0.6300
     16 S16        -9.4816   -2.2454   60.4999 S.o2    1  ZINC000572257265    2.7000
     17 O17       -10.1557   -1.5349   61.5295 O.2     1  ZINC000572257265   -0.9400
     18 O18        -8.5954   -3.3268   60.7537 O.2     1  ZINC000572257265   -0.9400
     19 N19        -8.6156   -1.1214   59.6460 N.am    1  ZINC000572257265   -1.1200
     20 C20        -9.2865    0.0622   59.1029 C.3     1  ZINC000572257265    0.2200
     21 C21        -8.6270    0.4691   57.8513 C.1     1  ZINC000572257265    0.1900
     22 N22        -8.1180    0.7830   56.8855 N.1     1  ZINC000572257265   -0.3900
     23 C23       -10.4215   -3.8462   58.4986 C.ar    1  ZINC000572257265   -0.0400
     24 C24       -11.4027   -4.3369   57.6574 C.ar    1  ZINC000572257265   -0.0400
     25 H25        -9.2095    0.6594   53.7162 H       1  ZINC000572257265    0.0800
     26 H26        -8.2974    0.3628   52.2166 H       1  ZINC000572257265    0.1000
     27 H27       -10.0192    0.8076   52.1380 H       1  ZINC000572257265    0.0800
     28 H28       -11.2356   -0.9791   54.5742 H       1  ZINC000572257265    0.0900
     29 H29       -12.0488   -0.9129   52.9922 H       1  ZINC000572257265    0.0900
     30 H30       -11.1979   -3.5450   51.8469 H       1  ZINC000572257265    0.0800
     31 H31       -12.4704   -4.5533   52.5766 H       1  ZINC000572257265    0.0700
     32 H32       -12.8747   -2.9513   51.9145 H       1  ZINC000572257265    0.0800
     33 H33       -10.6109   -3.3150   55.3591 H       1  ZINC000572257265    0.3800
     34 H34       -12.9970   -2.2114   55.4794 H       1  ZINC000572257265    0.0900
     35 H35       -13.9474   -2.5310   54.0088 H       1  ZINC000572257265    0.0800
     36 H36       -13.2925   -4.9943   54.5190 H       1  ZINC000572257265    0.4300
     37 H37       -14.0091   -2.4830   58.7287 H       1  ZINC000572257265    0.1500
     38 H38       -12.2630   -1.6136   60.2314 H       1  ZINC000572257265    0.1500
     39 H39        -7.6640   -1.2468   59.5056 H       1  ZINC000572257265    0.4300
     40 H40       -10.3320   -0.1725   58.9030 H       1  ZINC000572257265    0.1100
     41 H41        -9.2286    0.8763   59.8254 H       1  ZINC000572257265    0.1300
     42 H42        -9.4139   -4.2292   58.4342 H       1  ZINC000572257265    0.1600
     43 H43       -11.1608   -5.1014   56.9339 H       1  ZINC000572257265    0.1500
@<TRIPOS>BOND
     1     1     2    1
     2     1    25    1
     3     1    26    1
     4     1    27    1
     5     2     3    1
     6     3     4    1
     7     3    28    1
     8     3    29    1
     9     4     5    1
    10     4     6    1
    11     4     7    1
    12     5    30    1
    13     5    31    1
    14     5    32    1
    15     6    33    1
    16     7     8    1
    17     7    34    1
    18     7    35    1
    19     8     9   am
    20     8    36    1
    21     9    10    2
    22     9    11    2
    23     9    12    1
    24    12    24   ar
    25    12    13   ar
    26    13    14   ar
    27    13    37    1
    28    14    15   ar
    29    14    38    1
    30    15    16    1
    31    15    23   ar
    32    16    17    2
    33    16    18    2
    34    16    19   am
    35    19    20    1
    36    19    39    1
    37    20    21    1
    38    20    40    1
    39    20    41    1
    40    21    22    3
    41    23    24   ar
    42    23    42    1
    43    24    43    1
@<TRIPOS>SUBSTRUCTURE
     1 ZINC000572257265        1 TEMP              0 ****  ****    0 ROOT


##########                                Name:    ZINC000530457945
##########                DOCK_Rotatable_Bonds:                   4
##########                         Heavy_Atoms:                  25
##########                    Molecular_Weight:             355.827
##########                DOCK_Rotatable_Bonds:                   4
##########                       Formal_Charge:           0.0199997
##########                     HBond_Acceptors:                   7
##########                        HBond_Donors:                   1
##########                         Heavy_Atoms:                  25
##########                          Grid_Score:          -36.666142
##########                     Grid_vdw_energy:          -36.628048
##########                      Grid_es_energy:           -0.038094
##########           Internal_energy_repulsive:           31.429550

@<TRIPOS>MOLECULE
ZINC000530457945
 43 46 1 0 0
SMALL
USER_CHARGES


@<TRIPOS>ATOM
      1 C1        -12.0319   -1.9283   57.4904 C.3     1  ZINC000530457945   -0.1700
      2 C2        -11.5536   -2.9584   58.5156 C.3     1  ZINC000530457945    0.0900
      3 H3        -12.2243   -2.9654   59.3747 H       1  ZINC000530457945    0.1100
      4 C4        -10.1193   -2.6178   58.9720 C.3     1  ZINC000530457945   -0.1200
      5 H5         -9.6087   -2.0150   58.2210 H       1  ZINC000530457945    0.1100
      6 C6        -10.1378   -1.9068   60.3007 C.2     1  ZINC000530457945    0.5300
      7 O7        -11.1930   -1.6895   60.8575 O.2     1  ZINC000530457945   -0.4700
      8 N8         -8.9815   -1.5123   60.8699 N.am    1  ZINC000530457945   -0.6200
      9 C9         -8.9987   -0.8519   62.1005 C.2     1  ZINC000530457945    0.4800
     10 N10        -9.5843    0.3049   62.3349 N.2     1  ZINC000530457945   -0.3000
     11 N11        -9.3661    0.6104   63.6858 N.pl3   1  ZINC000530457945   -0.2800
     12 C12        -9.7311    1.6580   64.4711 C.2     1  ZINC000530457945    0.1400
     13 C13        -9.3753    1.6966   65.7762 C.2     1  ZINC000530457945   -0.0800
     14 Cl14       -9.8508    3.0428   66.7636 Cl      1  ZINC000530457945   -0.0200
     15 C15        -8.6236    0.6510   66.3334 C.2     1  ZINC000530457945   -0.0500
     16 C16        -8.2544   -0.4026   65.5529 C.2     1  ZINC000530457945   -0.0900
     17 C17        -8.6343   -0.4223   64.1991 C.2     1  ZINC000530457945    0.3000
     18 N18        -8.4316   -1.2959   63.2177 N.2     1  ZINC000530457945   -0.5500
     19 C19        -9.4531   -4.0129   59.1014 C.3     1  ZINC000530457945   -0.1200
     20 C20       -10.1141   -4.7849   57.9324 C.3     1  ZINC000530457945    0.0400
     21 N21       -11.5132   -4.2975   57.8999 N.3     1  ZINC000530457945   -0.4900
     22 C22       -12.0003   -4.2616   56.5913 C.ar    1  ZINC000530457945    0.1000
     23 C23       -11.2124   -3.7482   55.5690 C.ar    1  ZINC000530457945   -0.1600
     24 C24       -11.6971   -3.7147   54.2762 C.ar    1  ZINC000530457945   -0.1100
     25 C25       -12.9654   -4.1909   53.9991 C.ar    1  ZINC000530457945   -0.1300
     26 C26       -13.7524   -4.7026   55.0144 C.ar    1  ZINC000530457945   -0.1100
     27 C27       -13.2718   -4.7445   56.3084 C.ar    1  ZINC000530457945   -0.1000
     28 H28       -12.9919   -2.2423   57.0807 H       1  ZINC000530457945    0.0700
     29 H29       -12.1433   -0.9583   57.9747 H       1  ZINC000530457945    0.0600
     30 H30       -11.3011   -1.8507   56.6853 H       1  ZINC000530457945    0.0600
     31 H31        -8.1374   -1.6872   60.4251 H       1  ZINC000530457945    0.4300
     32 H32       -10.3098    2.4667   64.0498 H       1  ZINC000530457945    0.1800
     33 H33        -8.3392    0.6816   67.3748 H       1  ZINC000530457945    0.1600
     34 H34        -7.6754   -1.2137   65.9691 H       1  ZINC000530457945    0.1700
     35 H35        -8.3740   -3.9446   58.9635 H       1  ZINC000530457945    0.0900
     36 H36        -9.6944   -4.4734   60.0594 H       1  ZINC000530457945    0.0900
     37 H37        -9.6095   -4.5567   56.9935 H       1  ZINC000530457945    0.0700
     38 H38       -10.0919   -5.8574   58.1253 H       1  ZINC000530457945    0.0900
     39 H39       -10.2221   -3.3755   55.7849 H       1  ZINC000530457945    0.1200
     40 H40       -11.0850   -3.3156   53.4809 H       1  ZINC000530457945    0.1200
     41 H41       -13.3423   -4.1628   52.9873 H       1  ZINC000530457945    0.1200
     42 H42       -14.7426   -5.0738   54.7946 H       1  ZINC000530457945    0.1300
     43 H43       -13.8868   -5.1445   57.1009 H       1  ZINC000530457945    0.1300
@<TRIPOS>BOND
     1     1     2    1
     2     1    28    1
     3     1    29    1
     4     1    30    1
     5     2     3    1
     6     2    21    1
     7     2     4    1
     8     4     5    1
     9     4     6    1
    10     4    19    1
    11     6     7    2
    12     6     8   am
    13     8     9    1
    14     8    31    1
    15     9    18    1
    16     9    10    2
    17    10    11    1
    18    11    17    1
    19    11    12    1
    20    12    13    2
    21    12    32    1
    22    13    14    1
    23    13    15    1
    24    15    16    2
    25    15    33    1
    26    16    17    1
    27    16    34    1
    28    17    18    2
    29    19    20    1
    30    19    35    1
    31    19    36    1
    32    20    21    1
    33    20    37    1
    34    20    38    1
    35    21    22    1
    36    22    27   ar
    37    22    23   ar
    38    23    24   ar
    39    23    39    1
    40    24    25   ar
    41    24    40    1
    42    25    26   ar
    43    25    41    1
    44    26    27   ar
    45    26    42    1
    46    27    43    1
@<TRIPOS>SUBSTRUCTURE
     1 ZINC000530457945        1 TEMP              0 ****  ****    0 ROOT


##########                                Name:    ZINC001411334959
##########                DOCK_Rotatable_Bonds:                   9
##########                         Heavy_Atoms:                  24
##########                    Molecular_Weight:              339.37
##########                DOCK_Rotatable_Bonds:                   9
##########                       Formal_Charge:           0.0199995
##########                     HBond_Acceptors:                   9
##########                        HBond_Donors:                   3
##########                         Heavy_Atoms:                  24
##########                          Grid_Score:          -36.638485
##########                     Grid_vdw_energy:          -32.827103
##########                      Grid_es_energy:           -3.811384
##########           Internal_energy_repulsive:            8.275208

@<TRIPOS>MOLECULE
ZINC001411334959
 46 48 1 0 0
SMALL
USER_CHARGES


@<TRIPOS>ATOM
      1 O1        -11.1828   -0.1646   52.2297 O.2     1  ZINC001411334959   -0.5400
      2 C2        -12.1445   -0.7870   51.8311 C.2     1  ZINC001411334959    0.5200
      3 C3        -13.1570   -0.1184   50.9373 C.3     1  ZINC001411334959   -0.1400
      4 C4        -13.6888   -1.1317   49.9217 C.3     1  ZINC001411334959   -0.0100
      5 C5        -14.4420   -0.4069   48.8361 C.2     1  ZINC001411334959    0.0100
      6 N6        -13.9336    0.1790   47.7758 N.2     1  ZINC001411334959   -0.2800
      7 N7        -14.8925    0.6866   47.0852 N.pl3   1  ZINC001411334959   -0.2500
      8 N8        -16.0273    0.4612   47.6464 N.2     1  ZINC001411334959   -0.2800
      9 C9        -15.8241   -0.2255   48.7479 C.2     1  ZINC001411334959   -0.0200
     10 N10       -12.3046   -2.0782   52.1827 N.am    1  ZINC001411334959   -0.7200
     11 C11       -11.3203   -2.7281   53.0515 C.3     1  ZINC001411334959    0.1200
     12 C12       -11.2468   -2.1199   54.4621 C.3     1  ZINC001411334959   -0.1400
     13 C13       -11.1042   -3.5575   54.9892 C.3     1  ZINC001411334959   -0.1200
     14 C14       -11.8872   -3.8185   56.2775 C.3     1  ZINC001411334959    0.1300
     15 N15       -11.2488   -3.1092   57.3891 N.am    1  ZINC001411334959   -0.7200
     16 C16       -10.2662   -3.7053   58.0931 C.2     1  ZINC001411334959    0.5100
     17 O17        -9.9096   -4.8283   57.8056 O.2     1  ZINC001411334959   -0.5100
     18 C18        -9.6107   -2.9764   59.2377 C.3     1  ZINC001411334959    0.0700
     19 F19        -8.3888   -3.5716   59.5696 F       1  ZINC001411334959   -0.1800
     20 C20        -9.4242   -1.4719   58.9007 C.3     1  ZINC001411334959   -0.1600
     21 C21        -9.4591   -0.8465   60.3179 C.3     1  ZINC001411334959    0.0500
     22 O22       -10.4257   -1.6207   61.0458 O.3     1  ZINC001411334959   -0.3700
     23 C23       -10.5471   -2.9238   60.4640 C.3     1  ZINC001411334959    0.0400
     24 C24       -11.8401   -4.0129   53.7180 C.3     1  ZINC001411334959   -0.1400
     25 H25       -13.9826    0.2580   51.5414 H       1  ZINC001411334959    0.1000
     26 H26       -12.6850    0.7108   50.4102 H       1  ZINC001411334959    0.1000
     27 H27       -12.8541   -1.6780   49.4824 H       1  ZINC001411334959    0.1000
     28 H28       -14.3575   -1.8315   50.4229 H       1  ZINC001411334959    0.0900
     29 H29       -14.7755    1.1732   46.2544 H       1  ZINC001411334959    0.4700
     30 H30       -16.5717   -0.5725   49.4457 H       1  ZINC001411334959    0.2000
     31 H31       -13.0717   -2.5770   51.8607 H       1  ZINC001411334959    0.4000
     32 H32       -10.3474   -2.8466   52.5746 H       1  ZINC001411334959    0.1200
     33 H33       -10.3623   -1.5047   54.6268 H       1  ZINC001411334959    0.0800
     34 H34       -12.1688   -1.6297   54.7748 H       1  ZINC001411334959    0.0900
     35 H35       -10.0715   -3.9018   55.0445 H       1  ZINC001411334959    0.1000
     36 H36       -12.9106   -3.4622   56.1592 H       1  ZINC001411334959    0.0800
     37 H37       -11.8968   -4.8882   56.4865 H       1  ZINC001411334959    0.0800
     38 H38       -11.5332   -2.2106   57.6183 H       1  ZINC001411334959    0.4100
     39 H39        -8.4641   -1.2939   58.4163 H       1  ZINC001411334959    0.1000
     40 H40       -10.2461   -1.1019   58.2876 H       1  ZINC001411334959    0.1100
     41 H41        -8.4796   -0.9237   60.7898 H       1  ZINC001411334959    0.0700
     42 H42        -9.7726    0.1961   60.2637 H       1  ZINC001411334959    0.1000
     43 H43       -11.5770   -3.0943   60.1503 H       1  ZINC001411334959    0.0900
     44 H44       -10.2499   -3.6816   61.1889 H       1  ZINC001411334959    0.0900
     45 H45       -12.9243   -4.0402   53.8273 H       1  ZINC001411334959    0.0900
     46 H46       -11.4345   -4.9258   53.2821 H       1  ZINC001411334959    0.0800
@<TRIPOS>BOND
     1     1     2    2
     2     2     3    1
     3     2    10   am
     4     3     4    1
     5     3    25    1
     6     3    26    1
     7     4     5    1
     8     4    27    1
     9     4    28    1
    10     5     9    1
    11     5     6    2
    12     6     7    1
    13     7     8    1
    14     7    29    1
    15     8     9    2
    16     9    30    1
    17    10    11    1
    18    10    31    1
    19    11    24    1
    20    11    12    1
    21    11    32    1
    22    12    13    1
    23    12    33    1
    24    12    34    1
    25    13    14    1
    26    13    24    1
    27    13    35    1
    28    14    15    1
    29    14    36    1
    30    14    37    1
    31    15    16   am
    32    15    38    1
    33    16    17    2
    34    16    18    1
    35    18    23    1
    36    18    19    1
    37    18    20    1
    38    20    21    1
    39    20    39    1
    40    20    40    1
    41    21    22    1
    42    21    41    1
    43    21    42    1
    44    22    23    1
    45    23    43    1
    46    23    44    1
    47    24    45    1
    48    24    46    1
@<TRIPOS>SUBSTRUCTURE
     1 ZINC001411334959        1 TEMP              0 ****  ****    0 ROOT


##########                                Name:    ZINC000011972961
##########                DOCK_Rotatable_Bonds:                   6
##########                         Heavy_Atoms:                  28
##########                    Molecular_Weight:             397.501
##########                DOCK_Rotatable_Bonds:                   6
##########                       Formal_Charge:                   0
##########                     HBond_Acceptors:                   8
##########                        HBond_Donors:                   1
##########                         Heavy_Atoms:                  28
##########                          Grid_Score:          -36.594017
##########                     Grid_vdw_energy:          -36.594017
##########                      Grid_es_energy:            0.000000
##########           Internal_energy_repulsive:           24.350334

@<TRIPOS>MOLECULE
ZINC000011972961
 51 54 1 0 0
SMALL
USER_CHARGES


@<TRIPOS>ATOM
      1 C1        -13.1760   -2.1488   58.9460 C.3        'S      0.0000
      2 C2        -12.1010   -3.0986   58.4842 C.2        'S      0.0000
      3 C3        -12.2627   -3.8991   57.4230 C.2        'S      0.0000
      4 C4        -13.4738   -3.9540   56.5951 C.2        'S      0.0000
      5 O5        -14.4725   -4.5086   57.0141 O.2        'S      0.0000
      6 N6        -13.4795   -3.3901   55.3711 N.am       'S      0.0000
      7 C7        -14.6881   -3.4450   54.5449 C.3        'S      0.0000
      8 C8        -12.2771   -2.7223   54.8666 C.3        'S      0.0000
      9 H9        -11.5847   -2.5172   55.6830 H          'S      0.0000
     10 C10       -11.5926   -3.5869   53.7799 C.3        'S      0.0000
     11 C11       -12.1241   -2.9458   52.4726 C.3        'S      0.0000
     12 O12       -12.1705   -1.5366   52.7831 O.3        'S      0.0000
     13 C13       -12.6508   -1.4181   54.1359 C.3        'S      0.0000
     14 S14       -10.8268   -4.8733   57.1579 S.3        'S      0.0000
     15 C15       -10.0177   -4.1453   58.5391 C.ar       'S      0.0000
     16 N16        -8.8018   -4.3490   59.0586 N.ar       'S      0.0000
     17 C17        -8.3950   -3.6813   60.1140 C.ar       'S      0.0000
     18 N18        -9.1542   -2.7827   60.7140 N.ar       'S      0.0000
     19 C19       -10.3737   -2.5093   60.2758 C.ar       'S      0.0000
     20 N20       -11.1535   -1.5670   60.9151 N.pl3      'S      0.0000
     21 C21       -10.5209   -0.4595   61.6358 C.3        'S      0.0000
     22 C22       -10.0790    0.5929   60.6519 C.ar       'S      0.0000
     23 N23        -9.6810    0.2329   59.4475 N.ar       'S      0.0000
     24 C24        -9.2863    1.1190   58.5539 C.ar       'S      0.0000
     25 C25        -8.8409    0.6547   57.1911 C.3        'S      0.0000
     26 C26        -9.2767    2.4681   58.8526 C.ar       'S      0.0000
     27 C27        -9.6885    2.8848   60.1094 C.ar       'S      0.0000
     28 C28       -10.1010    1.9249   61.0206 C.ar       'S      0.0000
     29 C29       -10.8652   -3.1989   59.1315 C.ar       'S      0.0000
     30 H30       -12.8562   -1.1225   58.7653 H          'S      0.0000
     31 H31       -14.0958   -2.3451   58.3949 H          'S      0.0000
     32 H32       -13.3536   -2.2916   60.0120 H          'S      0.0000
     33 H33       -15.4798   -2.8662   55.0204 H          'S      0.0000
     34 H34       -14.4745   -3.0284   53.5605 H          'S      0.0000
     35 H35       -15.0091   -4.4813   54.4390 H          'S      0.0000
     36 H36       -10.5077   -3.5020   53.8416 H          'S      0.0000
     37 H37       -11.9051   -4.6283   53.8575 H          'S      0.0000
     38 H38       -11.4385   -3.1344   51.6464 H          'S      0.0000
     39 H39       -13.1206   -3.3204   52.2390 H          'S      0.0000
     40 H40       -13.7334   -1.2912   54.1350 H          'S      0.0000
     41 H41       -12.1764   -0.5670   54.6245 H          'S      0.0000
     42 H42        -7.4068   -3.8741   60.5044 H          'S      0.0000
     43 H43       -12.1205   -1.6380   60.8872 H          'S      0.0000
     44 H44       -11.2355   -0.0258   62.3353 H          'S      0.0000
     45 H45        -9.6550   -0.8305   62.1842 H          'S      0.0000
     46 H46        -9.6984    0.6260   56.5188 H          'S      0.0000
     47 H47        -8.0942    1.3447   56.7983 H          'S      0.0000
     48 H48        -8.4081   -0.3425   57.2705 H          'S      0.0000
     49 H49        -8.9524    3.1888   58.1165 H          'S      0.0000
     50 H50        -9.6915    3.9328   60.3710 H          'S      0.0000
     51 H51       -10.4285    2.2136   62.0083 H          'S      0.0000
@<TRIPOS>BOND
     1     1     2    1
     2     1    30    1
     3     1    31    1
     4     1    32    1
     5     2    29    1
     6     2     3    2
     7     3     4    1
     8     3    14    1
     9     4     5    2
    10     4     6   am
    11     6     7    1
    12     6     8    1
    13     7    33    1
    14     7    34    1
    15     7    35    1
    16     8     9    1
    17     8    13    1
    18     8    10    1
    19    10    11    1
    20    10    36    1
    21    10    37    1
    22    11    12    1
    23    11    38    1
    24    11    39    1
    25    12    13    1
    26    13    40    1
    27    13    41    1
    28    14    15    1
    29    15    29   ar
    30    15    16   ar
    31    16    17   ar
    32    17    18   ar
    33    17    42    1
    34    18    19   ar
    35    19    20    1
    36    19    29   ar
    37    20    21    1
    38    20    43    1
    39    21    22    1
    40    21    44    1
    41    21    45    1
    42    22    28   ar
    43    22    23   ar
    44    23    24   ar
    45    24    25    1
    46    24    26   ar
    47    25    46    1
    48    25    47    1
    49    25    48    1
    50    26    27   ar
    51    26    49    1
    52    27    28   ar
    53    27    50    1
    54    28    51    1
@<TRIPOS>SUBSTRUCTURE
     1 'S        1 TEMP              0 ****  ****    0 ROOT


##########                                Name:    ZINC000600609084
##########                DOCK_Rotatable_Bonds:                   8
##########                         Heavy_Atoms:                  30
##########                    Molecular_Weight:             422.548
##########                DOCK_Rotatable_Bonds:                   8
##########                       Formal_Charge:           0.0100005
##########                     HBond_Acceptors:                   6
##########                        HBond_Donors:                   2
##########                         Heavy_Atoms:                  30
##########                          Grid_Score:          -36.584522
##########                     Grid_vdw_energy:          -36.313900
##########                      Grid_es_energy:           -0.270620
##########           Internal_energy_repulsive:           19.856398

@<TRIPOS>MOLECULE
ZINC000600609084
 56 59 1 0 0
SMALL
USER_CHARGES


@<TRIPOS>ATOM
      1 O1        -10.5752   -2.2757   51.8125 O.2     1  ZINC000600609084   -0.5300
      2 C2        -11.1012   -2.1666   52.8998 C.2     1  ZINC000600609084    0.5200
      3 C3        -11.3258   -3.3877   53.7540 C.3     1  ZINC000600609084   -0.1500
      4 C4        -12.6228   -3.2228   54.5486 C.3     1  ZINC000600609084    0.1300
      5 N5        -13.0304   -4.5202   55.0929 N.am    1  ZINC000600609084   -1.1200
      6 S6        -13.8475   -4.5950   56.5314 S.o2    1  ZINC000600609084    2.7000
      7 O7        -14.9689   -3.7320   56.4013 O.2     1  ZINC000600609084   -0.9600
      8 O8        -13.9614   -5.9736   56.8570 O.2     1  ZINC000600609084   -0.9500
      9 C9        -12.8076   -3.8780   57.7599 C.ar    1  ZINC000600609084   -0.6700
     10 C10       -13.3296   -2.9210   58.6276 C.ar    1  ZINC000600609084   -0.0400
     11 C11       -12.5535   -2.3475   59.5876 C.ar    1  ZINC000600609084   -0.1200
     12 C12       -11.2052   -2.7242   59.7082 C.ar    1  ZINC000600609084   -0.0100
     13 C13       -10.3730   -2.1550   60.6872 C.ar    1  ZINC000600609084   -0.1200
     14 C14        -9.0720   -2.5447   60.7746 C.ar    1  ZINC000600609084   -0.0900
     15 C15        -8.5497   -3.5021   59.9065 C.ar    1  ZINC000600609084   -0.1200
     16 C16        -9.3256   -4.0749   58.9463 C.ar    1  ZINC000600609084   -0.0900
     17 C17       -10.6741   -3.6979   58.8255 C.ar    1  ZINC000600609084   -0.0800
     18 C18       -11.5076   -4.2716   57.8507 C.ar    1  ZINC000600609084    0.0200
     19 N19       -11.4796   -0.9526   53.3466 N.am    1  ZINC000600609084   -0.7200
     20 C20       -11.2611    0.2343   52.5162 C.3     1  ZINC000600609084    0.1400
     21 H21       -10.4620    0.0462   51.7994 H       1  ZINC000600609084    0.1000
     22 C22       -12.5577    0.6048   51.7749 C.3     1  ZINC000600609084   -0.1300
     23 C23       -12.9405    2.0251   52.2396 C.3     1  ZINC000600609084   -0.1300
     24 C24       -12.2507    2.1725   53.6185 C.3     1  ZINC000600609084   -0.1200
     25 C25       -10.9001    1.4421   53.4053 C.3     1  ZINC000600609084   -0.0700
     26 H26       -10.1905    2.0935   52.8952 H       1  ZINC000600609084    0.0900
     27 C27       -10.3363    0.9805   54.7245 C.ar    1  ZINC000600609084   -0.0600
     28 C28       -11.1634    0.3884   55.6605 C.ar    1  ZINC000600609084   -0.1100
     29 C29       -10.6463   -0.0349   56.8705 C.ar    1  ZINC000600609084   -0.1200
     30 C30        -9.3017    0.1334   57.1443 C.ar    1  ZINC000600609084   -0.1200
     31 C31        -8.4744    0.7247   56.2079 C.ar    1  ZINC000600609084   -0.1200
     32 C32        -8.9908    1.1441   54.9962 C.ar    1  ZINC000600609084   -0.1100
     33 H33       -11.3999   -4.2685   53.1164 H       1  ZINC000600609084    0.1000
     34 H34       -10.4901   -3.5075   54.4435 H       1  ZINC000600609084    0.1000
     35 H35       -12.4613   -2.5202   55.3662 H       1  ZINC000600609084    0.0900
     36 H36       -13.4053   -2.8422   53.8920 H       1  ZINC000600609084    0.0800
     37 H37       -12.8217   -5.3358   54.6108 H       1  ZINC000600609084    0.4200
     38 H38       -14.3656   -2.6293   58.5368 H       1  ZINC000600609084    0.1400
     39 H39       -12.9716   -1.6067   60.2530 H       1  ZINC000600609084    0.1400
     40 H40       -10.7637   -1.4117   61.3665 H       1  ZINC000600609084    0.1300
     41 H41        -8.4345   -2.1053   61.5275 H       1  ZINC000600609084    0.1300
     42 H42        -7.5137   -3.7933   59.9970 H       1  ZINC000600609084    0.1300
     43 H43        -8.9071   -4.8152   58.2805 H       1  ZINC000600609084    0.1300
     44 H44       -11.1179   -5.0180   57.1744 H       1  ZINC000600609084    0.1500
     45 H45       -11.8965   -0.8650   54.2180 H       1  ZINC000600609084    0.4000
     46 H46       -12.3874    0.5973   50.6983 H       1  ZINC000600609084    0.0800
     47 H47       -13.3494   -0.0986   52.0330 H       1  ZINC000600609084    0.0700
     48 H48       -12.5601    2.7705   51.5411 H       1  ZINC000600609084    0.0700
     49 H49       -14.0220    2.1143   52.3425 H       1  ZINC000600609084    0.0700
     50 H50       -12.0877    3.2232   53.8585 H       1  ZINC000600609084    0.0700
     51 H51       -12.8358    1.6835   54.3973 H       1  ZINC000600609084    0.0700
     52 H52       -12.2138    0.2569   55.4465 H       1  ZINC000600609084    0.1200
     53 H53       -11.2926   -0.4968   57.6020 H       1  ZINC000600609084    0.1200
     54 H54        -8.8978   -0.1966   58.0900 H       1  ZINC000600609084    0.1200
     55 H55        -7.4241    0.8566   56.4221 H       1  ZINC000600609084    0.1200
     56 H56        -8.3444    1.6062   54.2647 H       1  ZINC000600609084    0.1200
@<TRIPOS>BOND
     1     1     2    2
     2     2     3    1
     3     2    19   am
     4     3     4    1
     5     3    33    1
     6     3    34    1
     7     4     5    1
     8     4    35    1
     9     4    36    1
    10     5     6   am
    11     5    37    1
    12     6     7    2
    13     6     8    2
    14     6     9    1
    15     9    18   ar
    16     9    10   ar
    17    10    11   ar
    18    10    38    1
    19    11    12   ar
    20    11    39    1
    21    12    17   ar
    22    12    13   ar
    23    13    14   ar
    24    13    40    1
    25    14    15   ar
    26    14    41    1
    27    15    16   ar
    28    15    42    1
    29    16    17   ar
    30    16    43    1
    31    17    18   ar
    32    18    44    1
    33    19    20    1
    34    19    45    1
    35    20    21    1
    36    20    25    1
    37    20    22    1
    38    22    23    1
    39    22    46    1
    40    22    47    1
    41    23    24    1
    42    23    48    1
    43    23    49    1
    44    24    25    1
    45    24    50    1
    46    24    51    1
    47    25    26    1
    48    25    27    1
    49    27    32   ar
    50    27    28   ar
    51    28    29   ar
    52    28    52    1
    53    29    30   ar
    54    29    53    1
    55    30    31   ar
    56    30    54    1
    57    31    32   ar
    58    31    55    1
    59    32    56    1
@<TRIPOS>SUBSTRUCTURE
     1 ZINC000600609084        1 TEMP              0 ****  ****    0 ROOT


##########                                Name:    ZINC000609484313
##########                DOCK_Rotatable_Bonds:                  10
##########                         Heavy_Atoms:                  26
##########                    Molecular_Weight:             361.487
##########                DOCK_Rotatable_Bonds:                  10
##########                       Formal_Charge:          -0.0200004
##########                     HBond_Acceptors:                   7
##########                        HBond_Donors:                   1
##########                         Heavy_Atoms:                  26
##########                          Grid_Score:          -36.583733
##########                     Grid_vdw_energy:          -36.460716
##########                      Grid_es_energy:           -0.123018
##########           Internal_energy_repulsive:           34.518936

@<TRIPOS>MOLECULE
ZINC000609484313
 57 58 1 0 0
SMALL
USER_CHARGES


@<TRIPOS>ATOM
      1 C1        -16.1628   -0.9274   52.3622 C.3     1  ZINC000609484313   -0.1500
      2 C2        -15.5545   -2.2470   51.8831 C.3     1  ZINC000609484313   -0.1300
      3 C3        -14.3995   -2.6410   52.8060 C.3     1  ZINC000609484313   -0.1100
      4 C4        -13.2583   -1.6332   52.6536 C.3     1  ZINC000609484313   -0.1100
      5 C5        -11.9463   -2.2758   53.1082 C.3     1  ZINC000609484313    0.0800
      6 H6        -11.8312   -3.2467   52.6264 H       1  ZINC000609484313    0.1200
      7 C7        -10.7921   -1.3854   52.7263 C.2     1  ZINC000609484313    0.4900
      8 O8        -10.9290   -0.1804   52.7291 O.2     1  ZINC000609484313   -0.5000
      9 N9         -9.6076   -1.9282   52.3816 N.am    1  ZINC000609484313   -0.6300
     10 C10        -8.5386   -1.1039   52.0297 C.2     1  ZINC000609484313    0.2400
     11 N11        -7.5425   -1.4052   51.2386 N.2     1  ZINC000609484313   -0.3900
     12 O12        -6.7706   -0.4813   51.1270 O.3     1  ZINC000609484313    0.1000
     13 C13        -7.1605    0.5814   51.8459 C.2     1  ZINC000609484313   -0.0200
     14 C14        -6.4518    1.9073   51.9500 C.3     1  ZINC000609484313   -0.0800
     15 C15        -8.3172    0.2332   52.4543 C.2     1  ZINC000609484313   -0.2300
     16 N16       -11.9670   -2.4522   54.5665 N.3     1  ZINC000609484313   -0.5000
     17 C17       -11.6970   -1.1822   55.2546 C.3     1  ZINC000609484313    0.0400
     18 C18       -11.8058   -1.3910   56.7668 C.3     1  ZINC000609484313    0.0500
     19 N19       -10.8513   -2.4270   57.1855 N.3     1  ZINC000609484313   -0.5100
     20 C20       -10.8720   -2.6034   58.6438 C.3     1  ZINC000609484313    0.1800
     21 H21       -11.8834   -2.8520   58.9654 H       1  ZINC000609484313    0.1200
     22 C22        -9.9560   -3.6928   59.0192 C.1     1  ZINC000609484313    0.1700
     23 N23        -9.2491   -4.5335   59.3089 N.1     1  ZINC000609484313   -0.4200
     24 C24       -10.4260   -1.3059   59.3208 C.3     1  ZINC000609484313   -0.0800
     25 C25       -10.3392   -1.5234   60.8328 C.3     1  ZINC000609484313   -0.1400
     26 C26        -9.0525   -0.8970   58.7848 C.3     1  ZINC000609484313   -0.1500
     27 C27       -11.1214   -3.6971   56.4974 C.3     1  ZINC000609484313    0.0500
     28 C28       -11.0125   -3.4881   54.9852 C.3     1  ZINC000609484313    0.0400
     29 H29       -16.5354   -1.0474   53.3795 H       1  ZINC000609484313    0.0500
     30 H30       -15.4009   -0.1482   52.3438 H       1  ZINC000609484313    0.0500
     31 H31       -16.9856   -0.6468   51.7047 H       1  ZINC000609484313    0.0500
     32 H32       -16.3163   -3.0262   51.9015 H       1  ZINC000609484313    0.0600
     33 H33       -15.1818   -2.1271   50.8657 H       1  ZINC000609484313    0.0600
     34 H34       -14.7453   -2.6448   53.8396 H       1  ZINC000609484313    0.0800
     35 H35       -14.0436   -3.6359   52.5382 H       1  ZINC000609484313    0.0600
     36 H36       -13.1739   -1.3352   51.6086 H       1  ZINC000609484313    0.0700
     37 H37       -13.4645   -0.7556   53.2662 H       1  ZINC000609484313    0.0800
     38 H38        -9.4984   -2.8920   52.3783 H       1  ZINC000609484313    0.4200
     39 H39        -5.5481    1.8850   51.3411 H       1  ZINC000609484313    0.0800
     40 H40        -7.1102    2.6999   51.5944 H       1  ZINC000609484313    0.0900
     41 H41        -6.1848    2.0959   52.9898 H       1  ZINC000609484313    0.0900
     42 H42        -8.9271    0.8308   53.1155 H       1  ZINC000609484313    0.1900
     43 H43       -10.6922   -0.8404   55.0060 H       1  ZINC000609484313    0.0800
     44 H44       -12.4244   -0.4348   54.9373 H       1  ZINC000609484313    0.0800
     45 H45       -11.5775   -0.4571   57.2803 H       1  ZINC000609484313    0.0900
     46 H46       -12.8184   -1.7066   57.0183 H       1  ZINC000609484313    0.0400
     47 H47       -11.1484   -0.5180   59.1079 H       1  ZINC000609484313    0.0800
     48 H48        -9.6167   -2.3113   61.0457 H       1  ZINC000609484313    0.0600
     49 H49       -10.0214   -0.5990   61.3152 H       1  ZINC000609484313    0.0500
     50 H50       -11.3177   -1.8147   61.2147 H       1  ZINC000609484313    0.0700
     51 H51        -8.6933   -0.0259   59.3328 H       1  ZINC000609484313    0.0700
     52 H52        -8.3518   -1.7218   58.9138 H       1  ZINC000609484313    0.0600
     53 H53        -9.1341   -0.6519   57.7259 H       1  ZINC000609484313    0.0500
     54 H54       -10.3940   -4.4444   56.8146 H       1  ZINC000609484313    0.0900
     55 H55       -12.1262   -4.0388   56.7460 H       1  ZINC000609484313    0.0400
     56 H56       -11.2409   -4.4220   54.4717 H       1  ZINC000609484313    0.0800
     57 H57        -9.9999   -3.1726   54.7337 H       1  ZINC000609484313    0.0800
@<TRIPOS>BOND
     1     1     2    1
     2     1    29    1
     3     1    30    1
     4     1    31    1
     5     2     3    1
     6     2    32    1
     7     2    33    1
     8     3     4    1
     9     3    34    1
    10     3    35    1
    11     4     5    1
    12     4    36    1
    13     4    37    1
    14     5     6    1
    15     5     7    1
    16     5    16    1
    17     7     8    2
    18     7     9   am
    19     9    10    1
    20     9    38    1
    21    10    15    1
    22    10    11    2
    23    11    12    1
    24    12    13    1
    25    13    14    1
    26    13    15    2
    27    14    39    1
    28    14    40    1
    29    14    41    1
    30    15    42    1
    31    16    28    1
    32    16    17    1
    33    17    18    1
    34    17    43    1
    35    17    44    1
    36    18    19    1
    37    18    45    1
    38    18    46    1
    39    19    20    1
    40    19    27    1
    41    20    21    1
    42    20    22    1
    43    20    24    1
    44    22    23    3
    45    24    25    1
    46    24    26    1
    47    24    47    1
    48    25    48    1
    49    25    49    1
    50    25    50    1
    51    26    51    1
    52    26    52    1
    53    26    53    1
    54    27    28    1
    55    27    54    1
    56    27    55    1
    57    28    56    1
    58    28    57    1
@<TRIPOS>SUBSTRUCTURE
     1 ZINC000609484313        1 TEMP              0 ****  ****    0 ROOT


##########                                Name:    ZINC000822206030
##########                DOCK_Rotatable_Bonds:                   7
##########                         Heavy_Atoms:                  29
##########                    Molecular_Weight:             391.448
##########                DOCK_Rotatable_Bonds:                   7
##########                       Formal_Charge:         -0.00999995
##########                     HBond_Acceptors:                   7
##########                        HBond_Donors:                   1
##########                         Heavy_Atoms:                  29
##########                          Grid_Score:          -36.568138
##########                     Grid_vdw_energy:          -36.062771
##########                      Grid_es_energy:           -0.505367
##########           Internal_energy_repulsive:           22.480904

@<TRIPOS>MOLECULE
ZINC000822206030
 51 55 1 0 0
SMALL
USER_CHARGES


@<TRIPOS>ATOM
      1 C1        -13.4538   -5.3584   56.8027 C.3     1  ZINC000822206030   -0.1300
      2 C2        -13.7833   -3.9841   57.3261 C.ar    1  ZINC000822206030   -0.0400
      3 C3        -14.5981   -3.8430   58.4320 C.ar    1  ZINC000822206030   -0.1500
      4 C4        -14.9017   -2.5803   58.9130 C.ar    1  ZINC000822206030    0.1100
      5 F5        -15.6993   -2.4442   59.9948 F       1  ZINC000822206030   -0.1400
      6 C6        -14.3883   -1.4570   58.2870 C.ar    1  ZINC000822206030   -0.1500
      7 C7        -13.5729   -1.5939   57.1804 C.ar    1  ZINC000822206030   -0.0800
      8 C8        -13.2632   -2.8590   56.6999 C.ar    1  ZINC000822206030    0.1100
      9 N9        -12.4364   -3.0000   55.5785 N.am    1  ZINC000822206030   -0.5600
     10 C10       -11.0065   -3.2678   55.7518 C.3     1  ZINC000822206030    0.1500
     11 C11       -10.5642   -2.7779   57.1065 C.ar    1  ZINC000822206030   -0.0900
     12 C12       -10.2479   -3.6879   58.0989 C.ar    1  ZINC000822206030   -0.1000
     13 C13        -9.8419   -3.2446   59.3413 C.ar    1  ZINC000822206030   -0.0800
     14 C14        -9.7510   -1.8779   59.5950 C.ar    1  ZINC000822206030   -0.0100
     15 C15        -9.3144   -1.3952   60.9293 C.2     1  ZINC000822206030    0.2200
     16 N16        -9.3552   -0.1535   61.3694 N.2     1  ZINC000822206030   -0.2900
     17 N17        -8.8893   -0.1454   62.5709 N.pl3   1  ZINC000822206030   -0.2300
     18 N18        -8.5547   -1.3424   62.9059 N.2     1  ZINC000822206030   -0.0500
     19 N19        -8.8074   -2.1385   61.9231 N.2     1  ZINC000822206030   -0.2700
     20 C20       -10.0708   -0.9657   58.5920 C.ar    1  ZINC000822206030   -0.0800
     21 C21       -10.4707   -1.4198   57.3514 C.ar    1  ZINC000822206030   -0.0900
     22 C22       -12.9560   -2.8893   54.3399 C.2     1  ZINC000822206030    0.5500
     23 O23       -14.1400   -2.6691   54.1964 O.2     1  ZINC000822206030   -0.5000
     24 C24       -12.0659   -3.0392   53.1332 C.3     1  ZINC000822206030   -0.1900
     25 H25       -11.7383   -4.0554   52.9139 H       1  ZINC000822206030    0.1200
     26 C26       -11.0890   -1.9013   52.8302 C.3     1  ZINC000822206030   -0.1400
     27 C27       -12.3217   -2.1079   51.9465 C.3     1  ZINC000822206030   -0.0900
     28 H28       -12.1623   -2.5113   50.9465 H       1  ZINC000822206030    0.1100
     29 C29       -13.4613   -1.0951   52.0755 C.3     1  ZINC000822206030   -0.1100
     30 C30       -13.7037   -0.1504   50.8967 C.3     1  ZINC000822206030   -0.2000
     31 C31       -14.6848   -1.2902   51.1779 C.3     1  ZINC000822206030   -0.1200
     32 H32       -12.5523   -5.7271   57.2922 H       1  ZINC000822206030    0.0900
     33 H33       -14.2827   -6.0349   57.0109 H       1  ZINC000822206030    0.0700
     34 H34       -13.2879   -5.3073   55.7266 H       1  ZINC000822206030    0.0700
     35 H35       -14.9992   -4.7179   58.9220 H       1  ZINC000822206030    0.1400
     36 H36       -14.6259   -0.4731   58.6638 H       1  ZINC000822206030    0.1400
     37 H37       -13.1730   -0.7175   56.6922 H       1  ZINC000822206030    0.1400
     38 H38       -10.8260   -4.3402   55.6765 H       1  ZINC000822206030    0.1000
     39 H39       -10.4431   -2.7492   54.9761 H       1  ZINC000822206030    0.0900
     40 H40       -10.3190   -4.7474   57.9013 H       1  ZINC000822206030    0.1300
     41 H41        -9.5954   -3.9560   60.1156 H       1  ZINC000822206030    0.1400
     42 H42        -8.8038    0.6397   63.1343 H       1  ZINC000822206030    0.4800
     43 H43       -10.0024    0.0950   58.7835 H       1  ZINC000822206030    0.1300
     44 H44       -10.7189   -0.7134   56.5730 H       1  ZINC000822206030    0.1400
     45 H45       -11.0903   -1.0443   53.5037 H       1  ZINC000822206030    0.1000
     46 H46       -10.1189   -2.1689   52.4112 H       1  ZINC000822206030    0.1000
     47 H47       -13.6302   -0.7028   53.0783 H       1  ZINC000822206030    0.1000
     48 H48       -14.0320    0.8638   51.1238 H       1  ZINC000822206030    0.0900
     49 H49       -13.0513   -0.2503   50.0292 H       1  ZINC000822206030    0.0900
     50 H50       -14.6779   -2.1400   50.4954 H       1  ZINC000822206030    0.0800
     51 H51       -15.6586   -1.0258   51.5900 H       1  ZINC000822206030    0.0900
@<TRIPOS>BOND
     1     1     2    1
     2     1    32    1
     3     1    33    1
     4     1    34    1
     5     2     8   ar
     6     2     3   ar
     7     3     4   ar
     8     3    35    1
     9     4     5    1
    10     4     6   ar
    11     6     7   ar
    12     6    36    1
    13     7     8   ar
    14     7    37    1
    15     8     9    1
    16     9    10    1
    17     9    22   am
    18    10    11    1
    19    10    38    1
    20    10    39    1
    21    11    21   ar
    22    11    12   ar
    23    12    13   ar
    24    12    40    1
    25    13    14   ar
    26    13    41    1
    27    14    15    1
    28    14    20   ar
    29    15    19    1
    30    15    16    2
    31    16    17    1
    32    17    18    1
    33    17    42    1
    34    18    19    2
    35    20    21   ar
    36    20    43    1
    37    21    44    1
    38    22    23    2
    39    22    24    1
    40    24    25    1
    41    24    27    1
    42    24    26    1
    43    26    27    1
    44    26    45    1
    45    26    46    1
    46    27    28    1
    47    27    29    1
    48    29    31    1
    49    29    30    1
    50    29    47    1
    51    30    31    1
    52    30    48    1
    53    30    49    1
    54    31    50    1
    55    31    51    1
@<TRIPOS>SUBSTRUCTURE
     1 ZINC000822206030        1 TEMP              0 ****  ****    0 ROOT


##########                                Name:    ZINC000410354665
##########                DOCK_Rotatable_Bonds:                   7
##########                         Heavy_Atoms:                  29
##########                    Molecular_Weight:             417.889
##########                DOCK_Rotatable_Bonds:                   7
##########                       Formal_Charge:        -3.72529e-08
##########                     HBond_Acceptors:                   7
##########                        HBond_Donors:                   1
##########                         Heavy_Atoms:                  29
##########                          Grid_Score:          -36.545006
##########                     Grid_vdw_energy:          -34.879997
##########                      Grid_es_energy:           -1.665007
##########           Internal_energy_repulsive:           20.812819

@<TRIPOS>MOLECULE
ZINC000410354665
 53 56 1 0 0
SMALL
USER_CHARGES


@<TRIPOS>ATOM
      1 C1        -17.5397   -2.2363   53.0274 C.3     1  ZINC000410354665    0.0200
      2 O2        -16.7020   -2.1052   51.8773 O.3     1  ZINC000410354665   -0.3000
      3 C3        -15.3643   -2.2623   52.0665 C.ar    1  ZINC000410354665    0.0900
      4 C4        -14.9011   -3.0319   53.1155 C.ar    1  ZINC000410354665   -0.1100
      5 C5        -13.5257   -3.1916   53.3067 C.ar    1  ZINC000410354665   -0.1400
      6 C6        -13.0252   -4.0135   54.4260 C.2     1  ZINC000410354665    0.5700
      7 O7        -11.8311   -4.2032   54.5545 O.2     1  ZINC000410354665   -0.5300
      8 N8        -13.8918   -4.5537   55.3055 N.am    1  ZINC000410354665   -0.7200
      9 C9        -13.3949   -5.3680   56.4174 C.3     1  ZINC000410354665    0.1700
     10 C10       -12.7693   -4.4724   57.4555 C.ar    1  ZINC000410354665   -0.1000
     11 C11       -13.5443   -3.5407   58.1201 C.ar    1  ZINC000410354665   -0.0900
     12 C12       -12.9731   -2.7155   59.0720 C.ar    1  ZINC000410354665   -0.0300
     13 Cl13      -13.9493   -1.5460   59.9044 Cl      1  ZINC000410354665   -0.0400
     14 C14       -11.6203   -2.8221   59.3623 C.ar    1  ZINC000410354665    0.0700
     15 O15       -11.0702   -1.9980   60.2959 O.3     1  ZINC000410354665   -0.2900
     16 C16        -9.7974   -2.3847   60.8255 C.3     1  ZINC000410354665    0.0200
     17 C17        -8.8937   -2.7939   59.6546 C.3     1  ZINC000410354665    0.0200
     18 O18        -9.5152   -3.8866   58.9693 O.3     1  ZINC000410354665   -0.3000
     19 C19       -10.8428   -3.7617   58.6964 C.ar    1  ZINC000410354665    0.0600
     20 C20       -11.4228   -4.5882   57.7455 C.ar    1  ZINC000410354665   -0.0900
     21 C21       -12.6261   -2.5722   52.4363 C.ar    1  ZINC000410354665   -0.0800
     22 C22       -13.0950   -1.8051   51.3917 C.ar    1  ZINC000410354665   -0.1900
     23 C23       -14.4608   -1.6510   51.1980 C.ar    1  ZINC000410354665    0.1400
     24 O24       -14.9178   -0.8943   50.1673 O.3     1  ZINC000410354665   -0.2900
     25 C25       -13.9479   -0.1447   49.4329 C.3     1  ZINC000410354665    0.0700
     26 C26       -14.6013    0.5247   48.1984 C.3     1  ZINC000410354665   -0.1500
     27 C27       -13.6476    1.7100   47.9075 C.3     1  ZINC000410354665   -0.1200
     28 C28       -13.2388    2.2186   49.3053 C.3     1  ZINC000410354665   -0.1200
     29 C29       -13.4297    1.0393   50.2752 C.3     1  ZINC000410354665   -0.1200
     30 H30       -17.4191   -3.2324   53.4532 H       1  ZINC000410354665    0.0600
     31 H31       -17.2590   -1.4881   53.7686 H       1  ZINC000410354665    0.0600
     32 H32       -18.5801   -2.0885   52.7379 H       1  ZINC000410354665    0.1000
     33 H33       -15.5998   -3.5089   53.7867 H       1  ZINC000410354665    0.1500
     34 H34       -14.8445   -4.4035   55.2023 H       1  ZINC000410354665    0.4000
     35 H35       -14.2234   -5.9180   56.8637 H       1  ZINC000410354665    0.0800
     36 H36       -12.6491   -6.0716   56.0476 H       1  ZINC000410354665    0.0900
     37 H37       -14.5973   -3.4566   57.8956 H       1  ZINC000410354665    0.1500
     38 H38        -9.3509   -1.5454   61.3586 H       1  ZINC000410354665    0.1300
     39 H39        -9.9228   -3.2276   61.5050 H       1  ZINC000410354665    0.0800
     40 H40        -8.7731   -1.9527   58.9719 H       1  ZINC000410354665    0.0800
     41 H41        -7.9196   -3.1035   60.0329 H       1  ZINC000410354665    0.1300
     42 H42       -10.8208   -5.3206   57.2282 H       1  ZINC000410354665    0.1400
     43 H43       -11.5630   -2.6942   52.5821 H       1  ZINC000410354665    0.1300
     44 H44       -12.3982   -1.3265   50.7195 H       1  ZINC000410354665    0.1400
     45 H45       -13.1214   -0.7868   49.1284 H       1  ZINC000410354665    0.0800
     46 H46       -14.6292   -0.1648   47.3546 H       1  ZINC000410354665    0.0700
     47 H47       -15.6021    0.8839   48.4382 H       1  ZINC000410354665    0.0800
     48 H48       -12.7725    1.3687   47.3546 H       1  ZINC000410354665    0.0700
     49 H49       -14.1684    2.4917   47.3544 H       1  ZINC000410354665    0.0700
     50 H50       -12.1945    2.5310   49.2983 H       1  ZINC000410354665    0.0700
     51 H51       -13.8763    3.0519   49.6007 H       1  ZINC000410354665    0.0700
     52 H52       -14.1598    1.3004   51.0413 H       1  ZINC000410354665    0.0800
     53 H53       -12.4781    0.7795   50.7390 H       1  ZINC000410354665    0.0700
@<TRIPOS>BOND
     1     1     2    1
     2     1    30    1
     3     1    31    1
     4     1    32    1
     5     2     3    1
     6     3    23   ar
     7     3     4   ar
     8     4     5   ar
     9     4    33    1
    10     5     6    1
    11     5    21   ar
    12     6     7    2
    13     6     8   am
    14     8     9    1
    15     8    34    1
    16     9    10    1
    17     9    35    1
    18     9    36    1
    19    10    20   ar
    20    10    11   ar
    21    11    12   ar
    22    11    37    1
    23    12    13    1
    24    12    14   ar
    25    14    19   ar
    26    14    15    1
    27    15    16    1
    28    16    17    1
    29    16    38    1
    30    16    39    1
    31    17    18    1
    32    17    40    1
    33    17    41    1
    34    18    19    1
    35    19    20   ar
    36    20    42    1
    37    21    22   ar
    38    21    43    1
    39    22    23   ar
    40    22    44    1
    41    23    24    1
    42    24    25    1
    43    25    29    1
    44    25    26    1
    45    25    45    1
    46    26    27    1
    47    26    46    1
    48    26    47    1
    49    27    28    1
    50    27    48    1
    51    27    49    1
    52    28    29    1
    53    28    50    1
    54    28    51    1
    55    29    52    1
    56    29    53    1
@<TRIPOS>SUBSTRUCTURE
     1 ZINC000410354665        1 TEMP              0 ****  ****    0 ROOT


##########                                Name:    ZINC000859608860
##########                DOCK_Rotatable_Bonds:                   8
##########                         Heavy_Atoms:                  24
##########                    Molecular_Weight:             394.268
##########                DOCK_Rotatable_Bonds:                   8
##########                       Formal_Charge:          -0.0200003
##########                     HBond_Acceptors:                   6
##########                        HBond_Donors:                   1
##########                         Heavy_Atoms:                  24
##########                          Grid_Score:          -36.530537
##########                     Grid_vdw_energy:          -35.456066
##########                      Grid_es_energy:           -1.074471
##########           Internal_energy_repulsive:           12.760092

@<TRIPOS>MOLECULE
ZINC000859608860
 44 45 1 0 0
SMALL
USER_CHARGES


@<TRIPOS>ATOM
      1 C1        -11.7386   -1.8289   51.9449 C.3     1  ZINC000859608860   -0.1400
      2 C2        -12.2053   -2.2694   53.3338 C.3     1  ZINC000859608860   -0.0800
      3 C3        -11.7432   -1.2480   54.3750 C.3     1  ZINC000859608860   -0.1400
      4 C4        -13.7324   -2.3620   53.3530 C.3     1  ZINC000859608860   -0.1400
      5 C5        -11.6072   -3.6388   53.6623 C.3     1  ZINC000859608860    0.1300
      6 N6        -11.9416   -3.9994   55.0423 N.am    1  ZINC000859608860   -0.7300
      7 C7        -12.9064   -4.9083   55.2863 C.2     1  ZINC000859608860    0.5100
      8 O8        -13.4988   -5.4265   54.3636 O.2     1  ZINC000859608860   -0.5100
      9 C9        -13.2491   -5.2806   56.7058 C.3     1  ZINC000859608860    0.0500
     10 O10       -12.5786   -4.3731   57.6197 O.3     1  ZINC000859608860   -0.3100
     11 C11       -11.3153   -4.6830   57.9730 C.2     1  ZINC000859608860    0.5600
     12 O12       -10.8183   -5.7271   57.5985 O.2     1  ZINC000859608860   -0.5100
     13 C13       -10.5378   -3.7574   58.8121 C.2     1  ZINC000859608860   -0.0400
     14 C14       -11.0378   -2.9273   59.7739 C.2     1  ZINC000859608860    0.0500
     15 N15        -9.9791   -2.2533   60.2997 N.pl3   1  ZINC000859608860   -0.4100
     16 C16       -10.0324   -1.2933   61.3205 C.ar    1  ZINC000859608860    0.1400
     17 C17        -9.0167   -1.2250   62.2644 C.ar    1  ZINC000859608860   -0.1200
     18 C18        -9.0713   -0.2783   63.2686 C.ar    1  ZINC000859608860   -0.0600
     19 C19       -10.1371    0.6015   63.3343 C.ar    1  ZINC000859608860   -0.1000
     20 Br20      -10.2086    1.8963   64.7106 Br      1  ZINC000859608860   -0.0300
     21 C21       -11.1504    0.5357   62.3946 C.ar    1  ZINC000859608860   -0.0600
     22 C22       -11.0981   -0.4060   61.3857 C.ar    1  ZINC000859608860   -0.1200
     23 C23        -8.8587   -2.6800   59.6550 C.2     1  ZINC000859608860    0.2000
     24 N24        -9.1923   -3.5784   58.7745 N.2     1  ZINC000859608860   -0.4300
     25 H25       -10.6507   -1.7629   51.9312 H       1  ZINC000859608860    0.0500
     26 H26       -12.0678   -2.5565   51.2032 H       1  ZINC000859608860    0.0600
     27 H27       -12.1647   -0.8533   51.7109 H       1  ZINC000859608860    0.0600
     28 H28       -12.1694   -0.2725   54.1409 H       1  ZINC000859608860    0.0600
     29 H29       -12.0759   -1.5618   55.3644 H       1  ZINC000859608860    0.0600
     30 H30       -10.6553   -1.1820   54.3613 H       1  ZINC000859608860    0.0500
     31 H31       -14.0617   -3.0897   52.6113 H       1  ZINC000859608860    0.0600
     32 H32       -14.0649   -2.6759   54.3424 H       1  ZINC000859608860    0.0600
     33 H33       -14.1586   -1.3864   53.1189 H       1  ZINC000859608860    0.0600
     34 H34       -12.0157   -4.3863   52.9822 H       1  ZINC000859608860    0.0700
     35 H35       -10.5238   -3.5985   53.5496 H       1  ZINC000859608860    0.0700
     36 H36       -11.4687   -3.5841   55.7803 H       1  ZINC000859608860    0.4000
     37 H37       -14.3273   -5.2103   56.8497 H       1  ZINC000859608860    0.1000
     38 H38       -12.9222   -6.3017   56.9027 H       1  ZINC000859608860    0.1000
     39 H39       -12.0738   -2.8251   60.0616 H       1  ZINC000859608860    0.2000
     40 H40        -8.1847   -1.9118   62.2137 H       1  ZINC000859608860    0.1400
     41 H41        -8.2815   -0.2251   64.0033 H       1  ZINC000859608860    0.1500
     42 H42       -11.9814    1.2236   62.4481 H       1  ZINC000859608860    0.1500
     43 H43       -11.8894   -0.4569   60.6524 H       1  ZINC000859608860    0.1500
     44 H44        -7.8543   -2.3320   59.8462 H       1  ZINC000859608860    0.2200
@<TRIPOS>BOND
     1     1     2    1
     2     1    25    1
     3     1    26    1
     4     1    27    1
     5     2     3    1
     6     2     4    1
     7     2     5    1
     8     3    28    1
     9     3    29    1
    10     3    30    1
    11     4    31    1
    12     4    32    1
    13     4    33    1
    14     5     6    1
    15     5    34    1
    16     5    35    1
    17     6     7   am
    18     6    36    1
    19     7     8    2
    20     7     9    1
    21     9    10    1
    22     9    37    1
    23     9    38    1
    24    10    11    1
    25    11    12    2
    26    11    13    1
    27    13    24    1
    28    13    14    2
    29    14    15    1
    30    14    39    1
    31    15    16    1
    32    15    23    1
    33    16    22   ar
    34    16    17   ar
    35    17    18   ar
    36    17    40    1
    37    18    19   ar
    38    18    41    1
    39    19    20    1
    40    19    21   ar
    41    21    22   ar
    42    21    42    1
    43    22    43    1
    44    23    24    2
    45    23    44    1
@<TRIPOS>SUBSTRUCTURE
     1 ZINC000859608860        1 TEMP              0 ****  ****    0 ROOT


##########                                Name:    ZINC000007167963
##########                DOCK_Rotatable_Bonds:                   8
##########                         Heavy_Atoms:                  25
##########                    Molecular_Weight:             378.433
##########                DOCK_Rotatable_Bonds:                   8
##########                       Formal_Charge:        -1.01328e-06
##########                     HBond_Acceptors:                  10
##########                        HBond_Donors:                   3
##########                         Heavy_Atoms:                  25
##########                          Grid_Score:          -36.425606
##########                     Grid_vdw_energy:          -36.156639
##########                      Grid_es_energy:           -0.268968
##########           Internal_energy_repulsive:            9.123033

@<TRIPOS>MOLECULE
ZINC000007167963
 39 41 1 0 0
SMALL
USER_CHARGES


@<TRIPOS>ATOM
      1 C1         -7.7058    2.4974   53.8514 C.3     1  ZINC000007167963   -0.0800
      2 C2         -7.1472    1.7365   52.6765 C.2     1  ZINC000007167963    0.0900
      3 C3         -7.6182    0.5526   52.1983 C.2     1  ZINC000007167963   -0.1500
      4 C4         -8.7596   -0.2293   52.7182 C.2     1  ZINC000007167963    0.2600
      5 N5         -9.4796    0.0576   53.7752 N.2     1  ZINC000007167963   -0.2700
      6 N6        -10.3881   -0.8400   53.9304 N.2     1  ZINC000007167963   -0.2800
      7 C7        -10.2845   -1.7360   52.9784 C.2     1  ZINC000007167963    0.1200
      8 S8        -11.3061   -3.1559   52.7670 S.3     1  ZINC000007167963    0.1500
      9 C9        -12.1846   -3.1493   54.3496 C.3     1  ZINC000007167963   -0.1200
     10 H10       -12.6727   -2.1849   54.4902 H       1  ZINC000007167963    0.1400
     11 C11       -13.2377   -4.2592   54.3529 C.3     1  ZINC000007167963   -0.1500
     12 C12       -11.2039   -3.3840   55.4696 C.2     1  ZINC000007167963    0.5300
     13 O13       -10.2902   -4.1676   55.3211 O.2     1  ZINC000007167963   -0.4900
     14 N14       -11.3423   -2.7232   56.6360 N.am    1  ZINC000007167963   -0.6100
     15 C15       -10.4389   -2.9379   57.6658 C.2     1  ZINC000007167963    0.0800
     16 C16        -9.7172   -1.9523   58.2876 C.2     1  ZINC000007167963   -0.2400
     17 C17        -9.8127   -0.5321   57.9360 C.2     1  ZINC000007167963    0.5900
     18 N18        -8.7884    0.0768   57.3062 N.am    1  ZINC000007167963   -0.8400
     19 O19       -10.8172    0.0971   58.2127 O.2     1  ZINC000007167963   -0.5600
     20 C20        -8.8519   -2.4626   59.3283 C.2     1  ZINC000007167963   -0.0900
     21 C21        -8.9294   -3.7779   59.4723 C.2     1  ZINC000007167963   -0.2800
     22 S22       -10.0789   -4.4626   58.3371 S.3     1  ZINC000007167963    0.3000
     23 O23        -9.2569   -1.3683   52.1880 O.3     1  ZINC000007167963   -0.2000
     24 C24        -6.7572    0.2138   51.0576 C.2     1  ZINC000007167963   -0.1800
     25 C25        -5.8630    1.2110   50.9591 C.2     1  ZINC000007167963   -0.0300
     26 O26        -6.1055    2.1138   51.9215 O.3     1  ZINC000007167963   -0.1700
     27 H27        -7.1305    3.4114   53.9991 H       1  ZINC000007167963    0.0800
     28 H28        -8.7479    2.7515   53.6574 H       1  ZINC000007167963    0.1000
     29 H29        -7.6430    1.8798   54.7473 H       1  ZINC000007167963    0.1000
     30 H30       -13.9470   -4.0895   53.5429 H       1  ZINC000007167963    0.0900
     31 H31       -12.7496   -5.2236   54.2123 H       1  ZINC000007167963    0.0800
     32 H32       -13.7667   -4.2552   55.3059 H       1  ZINC000007167963    0.0800
     33 H33       -12.0738   -2.0974   56.7550 H       1  ZINC000007167963    0.4400
     34 H34        -8.8514    1.0167   57.0747 H       1  ZINC000007167963    0.4000
     35 H35        -7.9884   -0.4248   57.0845 H       1  ZINC000007167963    0.4100
     36 H36        -8.2075   -1.8357   59.9267 H       1  ZINC000007167963    0.1500
     37 H37        -8.3645   -4.3502   60.1934 H       1  ZINC000007167963    0.1700
     38 H38        -6.8283   -0.6600   50.4269 H       1  ZINC000007167963    0.1600
     39 H39        -5.0775    1.2776   50.2209 H       1  ZINC000007167963    0.2200
@<TRIPOS>BOND
     1     1     2    1
     2     1    27    1
     3     1    28    1
     4     1    29    1
     5     2    26    1
     6     2     3    2
     7     3     4    1
     8     3    24    1
     9     4    23    1
    10     4     5    2
    11     5     6    1
    12     6     7    2
    13     7     8    1
    14     7    23    1
    15     8     9    1
    16     9    10    1
    17     9    11    1
    18     9    12    1
    19    11    30    1
    20    11    31    1
    21    11    32    1
    22    12    13    2
    23    12    14   am
    24    14    15    1
    25    14    33    1
    26    15    22    1
    27    15    16    2
    28    16    17    1
    29    16    20    1
    30    17    18   am
    31    17    19    2
    32    18    34    1
    33    18    35    1
    34    20    21    2
    35    20    36    1
    36    21    22    1
    37    21    37    1
    38    24    25    2
    39    24    38    1
    40    25    26    1
    41    25    39    1
@<TRIPOS>SUBSTRUCTURE
     1 ZINC000007167963        1 TEMP              0 ****  ****    0 ROOT


##########                                Name:    ZINC000962855438
##########                DOCK_Rotatable_Bonds:                   7
##########                         Heavy_Atoms:                  27
##########                    Molecular_Weight:             370.448
##########                DOCK_Rotatable_Bonds:                   7
##########                       Formal_Charge:           0.0300005
##########                     HBond_Acceptors:                   6
##########                        HBond_Donors:                   2
##########                         Heavy_Atoms:                  27
##########                          Grid_Score:          -36.422043
##########                     Grid_vdw_energy:          -35.109482
##########                      Grid_es_energy:           -1.312562
##########           Internal_energy_repulsive:           11.175768

@<TRIPOS>MOLECULE
ZINC000962855438
 53 56 1 0 0
SMALL
USER_CHARGES


@<TRIPOS>ATOM
      1 C1        -10.0195    3.4181   59.9147 C.3     1  ZINC000962855438   -0.1100
      2 C2        -10.0450    2.0279   60.4960 C.2     1  ZINC000962855438   -0.1700
      3 C3         -9.7840    0.8652   59.6336 C.2     1  ZINC000962855438    0.5600
      4 O4         -9.3522    1.0274   58.5083 O.2     1  ZINC000962855438   -0.5400
      5 N5        -10.0235   -0.3800   60.0904 N.am    1  ZINC000962855438   -0.7100
      6 C6         -9.7653   -1.5380   59.2309 C.3     1  ZINC000962855438    0.1500
      7 H7         -9.1631   -1.2545   58.3678 H       1  ZINC000962855438    0.1200
      8 C8        -11.0903   -2.2071   58.7880 C.3     1  ZINC000962855438    0.1000
      9 N9        -10.7269   -3.6052   58.4934 N.am    1  ZINC000962855438   -0.6100
     10 C10       -11.3969   -4.4338   57.6682 C.2     1  ZINC000962855438    0.5800
     11 O11       -11.0039   -5.5718   57.4988 O.2     1  ZINC000962855438   -0.5200
     12 C12       -12.6072   -3.9597   56.9703 C.ar    1  ZINC000962855438   -0.1500
     13 C13       -13.8325   -3.9336   57.6363 C.ar    1  ZINC000962855438   -0.0600
     14 C14       -14.9651   -3.4920   56.9867 C.ar    1  ZINC000962855438   -0.1500
     15 C15       -14.8886   -3.0761   55.6668 C.ar    1  ZINC000962855438   -0.0500
     16 C16       -13.6847   -3.1006   54.9989 C.ar    1  ZINC000962855438   -0.1800
     17 C17       -12.5263   -3.5279   55.6339 C.ar    1  ZINC000962855438    0.1600
     18 O18       -11.4522   -3.4518   54.8053 O.3     1  ZINC000962855438   -0.2800
     19 C19       -11.9077   -3.3896   53.4430 C.3     1  ZINC000962855438    0.0700
     20 H20       -11.9923   -4.3898   53.0180 H       1  ZINC000962855438    0.0900
     21 C21       -10.9735   -2.5210   52.5982 C.3     1  ZINC000962855438   -0.1500
     22 C22       -13.3006   -2.7266   53.5800 C.3     1  ZINC000962855438   -0.1100
     23 C23        -9.5121   -3.9456   59.2484 C.3     1  ZINC000962855438    0.0700
     24 C24        -9.0884   -2.6833   60.0293 C.3     1  ZINC000962855438    0.0900
     25 H25        -8.0042   -2.5712   60.0224 H       1  ZINC000962855438    0.0900
     26 O26        -9.5816   -2.7289   61.3698 O.3     1  ZINC000962855438   -0.5600
     27 C27       -10.3033    1.8524   61.7888 C.2     1  ZINC000962855438   -0.0600
     28 C28       -10.6178    2.7418   62.9730 C.3     1  ZINC000962855438   -0.1000
     29 C29       -10.0340    1.6377   63.8685 C.3     1  ZINC000962855438   -0.1400
     30 C30       -10.4204    0.6737   62.7318 C.3     1  ZINC000962855438   -0.1100
     31 H31       -11.0170    3.6837   59.5646 H       1  ZINC000962855438    0.0700
     32 H32        -9.7025    4.1262   60.6803 H       1  ZINC000962855438    0.0700
     33 H33        -9.3207    3.4496   59.0788 H       1  ZINC000962855438    0.0700
     34 H34       -10.3669   -0.5095   60.9884 H       1  ZINC000962855438    0.4100
     35 H35       -11.8233   -2.1674   59.5937 H       1  ZINC000962855438    0.0800
     36 H36       -11.4809   -1.7204   57.8943 H       1  ZINC000962855438    0.0900
     37 H37       -13.8940   -4.2604   58.6638 H       1  ZINC000962855438    0.1400
     38 H38       -15.9120   -3.4706   57.5058 H       1  ZINC000962855438    0.1400
     39 H39       -15.7776   -2.7316   55.1595 H       1  ZINC000962855438    0.1300
     40 H40        -9.9755   -2.9591   52.5932 H       1  ZINC000962855438    0.0700
     41 H41       -11.3518   -2.4672   51.5774 H       1  ZINC000962855438    0.0800
     42 H42       -10.9280   -1.5178   53.0220 H       1  ZINC000962855438    0.0700
     43 H43       -14.0057   -3.1502   52.8650 H       1  ZINC000962855438    0.1000
     44 H44       -13.2305   -1.6452   53.4621 H       1  ZINC000962855438    0.1000
     45 H45        -9.7231   -4.7585   59.9432 H       1  ZINC000962855438    0.0800
     46 H46        -8.7186   -4.2392   58.5611 H       1  ZINC000962855438    0.0800
     47 H47        -9.5914   -1.8704   61.8147 H       1  ZINC000962855438    0.3900
     48 H48       -10.0407    3.6663   62.9890 H       1  ZINC000962855438    0.0900
     49 H49       -11.6848    2.9060   63.1234 H       1  ZINC000962855438    0.1000
     50 H50        -8.9598    1.7248   64.0312 H       1  ZINC000962855438    0.0900
     51 H51       -10.5941    1.4757   64.7894 H       1  ZINC000962855438    0.0800
     52 H52       -11.4330    0.2799   62.8198 H       1  ZINC000962855438    0.1000
     53 H53        -9.6783   -0.1033   62.5483 H       1  ZINC000962855438    0.0800
@<TRIPOS>BOND
     1     1     2    1
     2     1    31    1
     3     1    32    1
     4     1    33    1
     5     2     3    1
     6     2    27    2
     7     3     4    2
     8     3     5   am
     9     5     6    1
    10     5    34    1
    11     6     7    1
    12     6    24    1
    13     6     8    1
    14     8     9    1
    15     8    35    1
    16     8    36    1
    17     9    10   am
    18     9    23    1
    19    10    11    2
    20    10    12    1
    21    12    17   ar
    22    12    13   ar
    23    13    14   ar
    24    13    37    1
    25    14    15   ar
    26    14    38    1
    27    15    16   ar
    28    15    39    1
    29    16    22    1
    30    16    17   ar
    31    17    18    1
    32    18    19    1
    33    19    20    1
    34    19    21    1
    35    19    22    1
    36    21    40    1
    37    21    41    1
    38    21    42    1
    39    22    43    1
    40    22    44    1
    41    23    24    1
    42    23    45    1
    43    23    46    1
    44    24    25    1
    45    24    26    1
    46    26    47    1
    47    27    30    1
    48    27    28    1
    49    28    29    1
    50    28    48    1
    51    28    49    1
    52    29    30    1
    53    29    50    1
    54    29    51    1
    55    30    52    1
    56    30    53    1
@<TRIPOS>SUBSTRUCTURE
     1 ZINC000962855438        1 TEMP              0 ****  ****    0 ROOT


##########                                Name:    ZINC000740843182
##########                DOCK_Rotatable_Bonds:                  10
##########                         Heavy_Atoms:                  24
##########                    Molecular_Weight:              419.34
##########                DOCK_Rotatable_Bonds:                  10
##########                       Formal_Charge:          0.00999957
##########                     HBond_Acceptors:                   7
##########                        HBond_Donors:                   3
##########                         Heavy_Atoms:                  24
##########                          Grid_Score:          -36.379517
##########                     Grid_vdw_energy:          -36.304611
##########                      Grid_es_energy:           -0.074905
##########           Internal_energy_repulsive:            8.374211

@<TRIPOS>MOLECULE
ZINC000740843182
 47 48 1 0 0
SMALL
USER_CHARGES


@<TRIPOS>ATOM
      1 C1        -15.5960   -2.3299   53.3892 C.3     1  ZINC000740843182   -0.1500
      2 C2        -14.1953   -2.4830   53.9857 C.3     1  ZINC000740843182   -0.1000
      3 H3        -13.8608   -1.5228   54.3785 H       1  ZINC000740843182    0.0900
      4 C4        -14.2328   -3.5119   55.1174 C.3     1  ZINC000740843182    0.1200
      5 N5        -13.6508   -2.9277   56.3282 N.am    1  ZINC000740843182   -0.7200
      6 C6        -13.4433   -3.6971   57.4151 C.2     1  ZINC000740843182    0.5500
      7 O7        -13.7405   -4.8756   57.3913 O.2     1  ZINC000740843182   -0.5000
      8 C8        -12.8546   -3.1080   58.6360 C.ar    1  ZINC000740843182   -0.1300
      9 C9        -11.4685   -3.0168   58.7723 C.ar    1  ZINC000740843182    0.0200
     10 C10       -10.9254   -2.4654   59.9142 C.ar    1  ZINC000740843182   -0.6800
     11 S11        -9.1758   -2.3496   60.0877 S.o2    1  ZINC000740843182    2.7000
     12 O12        -8.9127   -2.3105   61.4835 O.2     1  ZINC000740843182   -0.9400
     13 O13        -8.6208   -3.3278   59.2193 O.2     1  ZINC000740843182   -0.9500
     14 N14        -8.7199   -0.8762   59.4846 N.am    1  ZINC000740843182   -1.0900
     15 C15        -8.9952   -0.5404   58.0855 C.3     1  ZINC000740843182    0.0800
     16 C16        -9.8845    0.6742   57.8122 C.3     1  ZINC000740843182   -0.1800
     17 C17        -8.3817    0.7484   57.5344 C.3     1  ZINC000740843182   -0.1900
     18 C18       -11.7511   -2.0027   60.9236 C.ar    1  ZINC000740843182    0.0100
     19 C19       -13.1256   -2.0895   60.7961 C.ar    1  ZINC000740843182   -0.1200
     20 C20       -13.6830   -2.6346   59.6565 C.ar    1  ZINC000740843182    0.0100
     21 Br21      -15.5624   -2.7528   59.4835 Br      1  ZINC000740843182    0.0100
     22 C22       -13.2270   -2.9549   52.8992 C.3     1  ZINC000740843182   -0.1400
     23 C23       -11.7950   -2.5971   53.3018 C.3     1  ZINC000740843182    0.1000
     24 H24       -11.8157   -1.8189   54.0648 H       1  ZINC000740843182    0.1000
     25 C25       -11.0323   -2.0896   52.0764 C.3     1  ZINC000740843182   -0.1900
     26 O26       -11.1426   -3.7571   53.8222 O.3     1  ZINC000740843182   -0.5600
     27 H27       -15.5694   -1.5968   52.5830 H       1  ZINC000740843182    0.0600
     28 H28       -15.9305   -3.2900   52.9965 H       1  ZINC000740843182    0.0600
     29 H29       -16.2858   -1.9937   54.1633 H       1  ZINC000740843182    0.0500
     30 H30       -15.2658   -3.7995   55.3130 H       1  ZINC000740843182    0.0700
     31 H31       -13.6594   -4.3923   54.8270 H       1  ZINC000740843182    0.0700
     32 H32       -13.4148   -1.9871   56.3476 H       1  ZINC000740843182    0.4000
     33 H33       -10.8225   -3.3774   57.9855 H       1  ZINC000740843182    0.1500
     34 H34        -8.2705   -0.2356   60.0578 H       1  ZINC000740843182    0.4200
     35 H35        -9.0785   -1.3887   57.4061 H       1  ZINC000740843182    0.1400
     36 H36       -10.5534    0.6251   56.9530 H       1  ZINC000740843182    0.1100
     37 H37       -10.2647    1.2235   58.6735 H       1  ZINC000740843182    0.1000
     38 H38        -7.7734    1.3464   58.2129 H       1  ZINC000740843182    0.1000
     39 H39        -8.0620    0.7481   56.4924 H       1  ZINC000740843182    0.1100
     40 H40       -11.3201   -1.5719   61.8153 H       1  ZINC000740843182    0.1600
     41 H41       -13.7644   -1.7265   61.5877 H       1  ZINC000740843182    0.1500
     42 H42       -13.3121   -4.0351   52.7810 H       1  ZINC000740843182    0.0700
     43 H43       -13.4723   -2.4657   51.9565 H       1  ZINC000740843182    0.0800
     44 H44       -11.5300   -1.2048   51.6796 H       1  ZINC000740843182    0.0700
     45 H45       -10.0121   -1.8347   52.3633 H       1  ZINC000740843182    0.0600
     46 H46       -11.0115   -2.8677   51.3134 H       1  ZINC000740843182    0.0600
     47 H47       -10.2231   -3.6080   54.0819 H       1  ZINC000740843182    0.3700
@<TRIPOS>BOND
     1     1     2    1
     2     1    27    1
     3     1    28    1
     4     1    29    1
     5     2     3    1
     6     2     4    1
     7     2    22    1
     8     4     5    1
     9     4    30    1
    10     4    31    1
    11     5     6   am
    12     5    32    1
    13     6     7    2
    14     6     8    1
    15     8    20   ar
    16     8     9   ar
    17     9    10   ar
    18     9    33    1
    19    10    11    1
    20    10    18   ar
    21    11    12    2
    22    11    13    2
    23    11    14   am
    24    14    15    1
    25    14    34    1
    26    15    17    1
    27    15    16    1
    28    15    35    1
    29    16    17    1
    30    16    36    1
    31    16    37    1
    32    17    38    1
    33    17    39    1
    34    18    19   ar
    35    18    40    1
    36    19    20   ar
    37    19    41    1
    38    20    21    1
    39    22    23    1
    40    22    42    1
    41    22    43    1
    42    23    24    1
    43    23    25    1
    44    23    26    1
    45    25    44    1
    46    25    45    1
    47    25    46    1
    48    26    47    1
@<TRIPOS>SUBSTRUCTURE
     1 ZINC000740843182        1 TEMP              0 ****  ****    0 ROOT


##########                                Name:    ZINC000444811358
##########                DOCK_Rotatable_Bonds:                  11
##########                         Heavy_Atoms:                  27
##########                    Molecular_Weight:             374.455
##########                DOCK_Rotatable_Bonds:                  11
##########                       Formal_Charge:          0.00999966
##########                     HBond_Acceptors:                   6
##########                        HBond_Donors:                   2
##########                         Heavy_Atoms:                  27
##########                          Grid_Score:          -36.343437
##########                     Grid_vdw_energy:          -35.608067
##########                      Grid_es_energy:           -0.735369
##########           Internal_energy_repulsive:           21.142384

@<TRIPOS>MOLECULE
ZINC000444811358
 54 55 1 0 0
SMALL
USER_CHARGES


@<TRIPOS>ATOM
      1 C1         -9.3972    0.5085   63.5489 C.3     1  ZINC000444811358   -0.1100
      2 C2         -9.8177   -0.4465   62.4617 C.ar    1  ZINC000444811358   -0.1300
      3 C3         -8.9050   -1.3448   61.9415 C.ar    1  ZINC000444811358   -0.0700
      4 C4         -9.2869   -2.2214   60.9443 C.ar    1  ZINC000444811358   -0.1500
      5 C5        -10.5896   -2.2009   60.4639 C.ar    1  ZINC000444811358    0.1700
      6 N6        -10.9783   -3.0883   59.4544 N.am    1  ZINC000444811358   -0.6800
      7 C7        -10.8314   -2.7425   58.1600 C.2     1  ZINC000444811358    0.5200
      8 O8        -10.3623   -1.6623   57.8703 O.2     1  ZINC000444811358   -0.5000
      9 C9        -11.2500   -3.6984   57.0727 C.3     1  ZINC000444811358    0.0200
     10 N10       -12.5936   -3.3415   56.5977 N.3     1  ZINC000444811358   -0.5000
     11 C11       -12.7064   -3.5321   55.1455 C.3     1  ZINC000444811358    0.0200
     12 C12       -12.5926   -2.1776   54.4431 C.3     1  ZINC000444811358    0.1100
     13 H13       -13.4025   -2.0734   53.7213 H       1  ZINC000444811358    0.1200
     14 O14       -12.6795   -1.1302   55.4112 O.3     1  ZINC000444811358   -0.5400
     15 C15       -11.2483   -2.0910   53.7173 C.3     1  ZINC000444811358    0.0300
     16 O16       -10.9939   -0.7346   53.3463 O.3     1  ZINC000444811358   -0.3000
     17 C17        -9.7393   -0.4374   52.9170 C.ar    1  ZINC000444811358    0.1300
     18 C18        -9.1776    0.7962   53.2127 C.ar    1  ZINC000444811358   -0.2100
     19 C19        -7.9019    1.0956   52.7756 C.ar    1  ZINC000444811358   -0.0800
     20 C20        -7.1849    0.1672   52.0436 C.ar    1  ZINC000444811358   -0.1600
     21 C21        -7.7425   -1.0628   51.7472 C.ar    1  ZINC000444811358   -0.0800
     22 C22        -9.0157   -1.3694   52.1873 C.ar    1  ZINC000444811358   -0.1500
     23 C23       -13.6247   -4.1073   57.3109 C.3     1  ZINC000444811358    0.0700
     24 C24       -14.9994   -3.4981   57.0279 C.3     1  ZINC000444811358   -0.1400
     25 C25       -13.6026   -5.5605   56.8329 C.3     1  ZINC000444811358   -0.1900
     26 C26       -11.5060   -1.2985   60.9874 C.ar    1  ZINC000444811358   -0.1500
     27 C27       -11.1198   -0.4265   61.9893 C.ar    1  ZINC000444811358    0.1200
     28 F28       -12.0100    0.4522   62.4998 F       1  ZINC000444811358   -0.1300
     29 H29        -9.5646    0.0473   64.5223 H       1  ZINC000444811358    0.0700
     30 H30        -8.3392    0.7447   63.4359 H       1  ZINC000444811358    0.0700
     31 H31        -9.9838    1.4242   63.4751 H       1  ZINC000444811358    0.0700
     32 H32        -7.8917   -1.3611   62.3148 H       1  ZINC000444811358    0.1400
     33 H33        -8.5725   -2.9222   60.5384 H       1  ZINC000444811358    0.1300
     34 H34       -11.3534   -3.9523   59.6860 H       1  ZINC000444811358    0.4100
     35 H35       -10.5441   -3.6382   56.2444 H       1  ZINC000444811358    0.1300
     36 H36       -11.2620   -4.7145   57.4669 H       1  ZINC000444811358    0.0700
     37 H37       -11.9066   -4.1881   54.8019 H       1  ZINC000444811358    0.0500
     38 H38       -13.6713   -3.9824   54.9120 H       1  ZINC000444811358    0.1000
     39 H39       -13.2546   -1.3346   56.1613 H       1  ZINC000444811358    0.3700
     40 H40       -10.4555   -2.4418   54.3778 H       1  ZINC000444811358    0.0600
     41 H41       -11.2777   -2.7130   52.8227 H       1  ZINC000444811358    0.0700
     42 H42        -9.7376    1.5220   53.7839 H       1  ZINC000444811358    0.1300
     43 H43        -7.4642    2.0558   53.0055 H       1  ZINC000444811358    0.1200
     44 H44        -6.1878    0.4034   51.7025 H       1  ZINC000444811358    0.1200
     45 H45        -7.1806   -1.7861   51.1750 H       1  ZINC000444811358    0.1300
     46 H46        -9.4508   -2.3303   51.9555 H       1  ZINC000444811358    0.1300
     47 H47       -13.4260   -4.0740   58.3821 H       1  ZINC000444811358    0.0900
     48 H48       -15.2553   -3.6502   55.9793 H       1  ZINC000444811358    0.0500
     49 H49       -15.7469   -3.9800   57.6580 H       1  ZINC000444811358    0.0600
     50 H50       -14.9752   -2.4302   57.2448 H       1  ZINC000444811358    0.0700
     51 H51       -12.6233   -5.9945   57.0344 H       1  ZINC000444811358    0.0500
     52 H52       -14.3676   -6.1286   57.3620 H       1  ZINC000444811358    0.0700
     53 H53       -13.8012   -5.5938   55.7617 H       1  ZINC000444811358    0.0600
     54 H54       -12.5198   -1.2800   60.6155 H       1  ZINC000444811358    0.1500
@<TRIPOS>BOND
     1     1     2    1
     2     1    29    1
     3     1    30    1
     4     1    31    1
     5     2    27   ar
     6     2     3   ar
     7     3     4   ar
     8     3    32    1
     9     4     5   ar
    10     4    33    1
    11     5     6    1
    12     5    26   ar
    13     6     7   am
    14     6    34    1
    15     7     8    2
    16     7     9    1
    17     9    10    1
    18     9    35    1
    19     9    36    1
    20    10    11    1
    21    10    23    1
    22    11    12    1
    23    11    37    1
    24    11    38    1
    25    12    13    1
    26    12    14    1
    27    12    15    1
    28    14    39    1
    29    15    16    1
    30    15    40    1
    31    15    41    1
    32    16    17    1
    33    17    22   ar
    34    17    18   ar
    35    18    19   ar
    36    18    42    1
    37    19    20   ar
    38    19    43    1
    39    20    21   ar
    40    20    44    1
    41    21    22   ar
    42    21    45    1
    43    22    46    1
    44    23    24    1
    45    23    25    1
    46    23    47    1
    47    24    48    1
    48    24    49    1
    49    24    50    1
    50    25    51    1
    51    25    52    1
    52    25    53    1
    53    26    27   ar
    54    26    54    1
    55    27    28    1
@<TRIPOS>SUBSTRUCTURE
     1 ZINC000444811358        1 TEMP              0 ****  ****    0 ROOT


##########                                Name:    ZINC000114394234
##########                DOCK_Rotatable_Bonds:                   9
##########                         Heavy_Atoms:                  27
##########                    Molecular_Weight:             365.392
##########                DOCK_Rotatable_Bonds:                   9
##########                       Formal_Charge:           0.0300002
##########                     HBond_Acceptors:                   8
##########                        HBond_Donors:                   3
##########                         Heavy_Atoms:                  27
##########                          Grid_Score:          -36.333454
##########                     Grid_vdw_energy:          -34.792297
##########                      Grid_es_energy:           -1.541158
##########           Internal_energy_repulsive:           11.254266

@<TRIPOS>MOLECULE
ZINC000114394234
 46 48 1 0 0
SMALL
USER_CHARGES


@<TRIPOS>ATOM
      1 C1        -15.3176   -2.3643   53.7633 C.3     1  ZINC000114394234   -0.1600
      2 C2        -14.0440   -3.1627   54.0483 C.3     1  ZINC000114394234    0.1300
      3 H3        -14.1295   -4.1542   53.6034 H       1  ZINC000114394234    0.1200
      4 N4        -12.8916   -2.4663   53.4711 N.am    1  ZINC000114394234   -0.7100
      5 C5        -11.7988   -3.1632   53.1015 C.2     1  ZINC000114394234    0.5200
      6 O6        -11.7689   -4.3668   53.2482 O.2     1  ZINC000114394234   -0.5100
      7 C7        -10.6141   -2.4471   52.5061 C.3     1  ZINC000114394234    0.0400
      8 O8        -10.6057   -1.0889   52.9506 O.3     1  ZINC000114394234   -0.2900
      9 C9         -9.5118   -0.3448   52.6399 C.ar    1  ZINC000114394234    0.1300
     10 C10        -8.4428   -0.9257   51.9732 C.ar    1  ZINC000114394234   -0.2100
     11 C11        -7.3322   -0.1670   51.6581 C.ar    1  ZINC000114394234   -0.0800
     12 C12        -7.2852    1.1701   52.0070 C.ar    1  ZINC000114394234   -0.1600
     13 C13        -8.3491    1.7512   52.6720 C.ar    1  ZINC000114394234   -0.0800
     14 C14        -9.4646    0.9983   52.9839 C.ar    1  ZINC000114394234   -0.1500
     15 C15       -13.8568   -3.2950   55.5377 C.2     1  ZINC000114394234    0.5100
     16 O16       -13.3474   -4.2948   55.9985 O.2     1  ZINC000114394234   -0.5100
     17 N17       -14.2554   -2.3026   56.3578 N.am    1  ZINC000114394234   -0.6700
     18 C18       -14.0815   -2.4255   57.7409 C.ar    1  ZINC000114394234    0.1300
     19 C19       -15.1648   -2.7390   58.5522 C.ar    1  ZINC000114394234   -0.1200
     20 C20       -14.9969   -2.8613   59.9187 C.ar    1  ZINC000114394234   -0.1000
     21 C21       -13.7523   -2.6721   60.4850 C.ar    1  ZINC000114394234   -0.0900
     22 C22       -12.6599   -2.3568   59.6786 C.ar    1  ZINC000114394234    0.0000
     23 C23       -11.3212   -2.1526   60.2859 C.2     1  ZINC000114394234    0.2700
     24 N24       -10.2311   -2.8218   59.9810 N.2     1  ZINC000114394234   -0.3000
     25 N25        -9.2031   -2.3086   60.7884 N.pl3   1  ZINC000114394234   -0.4800
     26 C26        -9.7559   -1.3420   61.5431 C.2     1  ZINC000114394234    0.2700
     27 N27       -11.0218   -1.2519   61.2315 N.2     1  ZINC000114394234   -0.5300
     28 C28       -12.8266   -2.2400   58.3016 C.ar    1  ZINC000114394234   -0.0800
     29 H29       -15.2321   -1.3729   54.2082 H       1  ZINC000114394234    0.0700
     30 H30       -15.4531   -2.2686   52.6859 H       1  ZINC000114394234    0.0800
     31 H31       -16.1750   -2.8825   54.1927 H       1  ZINC000114394234    0.0800
     32 H32       -12.9151   -1.5035   53.3549 H       1  ZINC000114394234    0.4100
     33 H33        -9.6948   -2.9390   52.8238 H       1  ZINC000114394234    0.1000
     34 H34       -10.6828   -2.4729   51.4185 H       1  ZINC000114394234    0.1000
     35 H35        -8.4787   -1.9703   51.7011 H       1  ZINC000114394234    0.1300
     36 H36        -6.4998   -0.6188   51.1391 H       1  ZINC000114394234    0.1300
     37 H37        -6.4159    1.7615   51.7601 H       1  ZINC000114394234    0.1300
     38 H38        -8.3099    2.7957   52.9438 H       1  ZINC000114394234    0.1300
     39 H39       -10.2954    1.4528   53.5033 H       1  ZINC000114394234    0.1300
     40 H40       -14.6627   -1.5031   55.9894 H       1  ZINC000114394234    0.4200
     41 H41       -16.1407   -2.8874   58.1141 H       1  ZINC000114394234    0.1300
     42 H42       -15.8421   -3.1052   60.5454 H       1  ZINC000114394234    0.1400
     43 H43       -13.6249   -2.7680   61.5531 H       1  ZINC000114394234    0.1400
     44 H44        -8.2764   -2.5951   60.7998 H       1  ZINC000114394234    0.4400
     45 H45        -9.2408   -0.7402   62.2773 H       1  ZINC000114394234    0.2300
     46 H46       -11.9833   -1.9960   57.6727 H       1  ZINC000114394234    0.1500
@<TRIPOS>BOND
     1     1     2    1
     2     1    29    1
     3     1    30    1
     4     1    31    1
     5     2     3    1
     6     2     4    1
     7     2    15    1
     8     4     5   am
     9     4    32    1
    10     5     6    2
    11     5     7    1
    12     7     8    1
    13     7    33    1
    14     7    34    1
    15     8     9    1
    16     9    14   ar
    17     9    10   ar
    18    10    11   ar
    19    10    35    1
    20    11    12   ar
    21    11    36    1
    22    12    13   ar
    23    12    37    1
    24    13    14   ar
    25    13    38    1
    26    14    39    1
    27    15    16    2
    28    15    17   am
    29    17    18    1
    30    17    40    1
    31    18    28   ar
    32    18    19   ar
    33    19    20   ar
    34    19    41    1
    35    20    21   ar
    36    20    42    1
    37    21    22   ar
    38    21    43    1
    39    22    23    1
    40    22    28   ar
    41    23    27    1
    42    23    24    2
    43    24    25    1
    44    25    26    1
    45    25    44    1
    46    26    27    2
    47    26    45    1
    48    28    46    1
@<TRIPOS>SUBSTRUCTURE
     1 ZINC000114394234        1 TEMP              0 ****  ****    0 ROOT


##########                                Name:    ZINC000440379747
##########                DOCK_Rotatable_Bonds:                   8
##########                         Heavy_Atoms:                  27
##########                    Molecular_Weight:             394.452
##########                DOCK_Rotatable_Bonds:                   8
##########                       Formal_Charge:           0.0199995
##########                     HBond_Acceptors:                  10
##########                        HBond_Donors:                   3
##########                         Heavy_Atoms:                  27
##########                          Grid_Score:          -36.315693
##########                     Grid_vdw_energy:          -32.769398
##########                      Grid_es_energy:           -3.546297
##########           Internal_energy_repulsive:           22.529694

@<TRIPOS>MOLECULE
ZINC000440379747
 49 51 1 0 0
SMALL
USER_CHARGES


@<TRIPOS>ATOM
      1 C1        -11.4947   -1.6633   52.6781 C.3     1  ZINC000440379747   -0.1800
      2 C2        -10.8437   -1.1311   53.9287 C.2     1  ZINC000440379747    0.5200
      3 O3         -9.9281   -0.3398   53.8461 O.2     1  ZINC000440379747   -0.5200
      4 N4        -11.2787   -1.5345   55.1389 N.am    1  ZINC000440379747   -0.5500
      5 C5        -12.3724   -2.4830   55.3652 C.3     1  ZINC000440379747    0.1100
      6 C6        -12.4828   -2.6149   56.8928 C.3     1  ZINC000440379747   -0.0900
      7 C7        -11.4068   -1.7001   57.4333 C.ar    1  ZINC000440379747   -0.1100
      8 C8        -11.0346   -1.4103   58.7308 C.ar    1  ZINC000440379747   -0.0700
      9 C9         -9.9960   -0.5207   58.9753 C.ar    1  ZINC000440379747    0.1200
     10 N10        -9.6174   -0.2264   60.2888 N.am    1  ZINC000440379747   -0.6400
     11 C11        -9.3351   -1.2252   61.1486 C.2     1  ZINC000440379747    0.5100
     12 O12        -9.4097   -2.3802   60.7827 O.2     1  ZINC000440379747   -0.4900
     13 C13        -8.9307   -0.9109   62.5513 C.2     1  ZINC000440379747    0.5200
     14 O14        -7.9880   -1.4862   63.0545 O.2     1  ZINC000440379747   -0.5100
     15 N15        -9.6128    0.0117   63.2586 N.am    1  ZINC000440379747   -0.5800
     16 C16       -10.7721    0.7821   62.7729 C.3     1  ZINC000440379747    0.1000
     17 C17       -11.5411    1.1911   64.0539 C.3     1  ZINC000440379747   -0.1300
     18 C18       -10.3766    1.4724   65.0399 C.3     1  ZINC000440379747   -0.1600
     19 C19        -9.3277    0.4118   64.6443 C.3     1  ZINC000440379747    0.1500
     20 H20        -9.4036   -0.4500   65.3073 H       1  ZINC000440379747    0.1000
     21 C21        -7.9229    1.0120   64.7301 C.3     1  ZINC000440379747   -0.6500
     22 S22        -7.2278    0.6911   66.3747 S.o2    1  ZINC000440379747    2.6200
     23 N23        -8.1399    1.6210   67.3972 N.am    1  ZINC000440379747   -1.2500
     24 O24        -7.4993   -0.6438   66.7790 O.2     1  ZINC000440379747   -0.9500
     25 O25        -5.9197    1.2364   66.4781 O.2     1  ZINC000440379747   -0.9500
     26 C26        -9.3350    0.0748   57.9083 C.ar    1  ZINC000440379747   -0.1000
     27 C27        -9.7082   -0.2159   56.6143 C.ar    1  ZINC000440379747   -0.1400
     28 C28       -10.7478   -1.1136   56.3637 C.ar    1  ZINC000440379747    0.1400
     29 H29       -11.0124   -1.2270   51.8035 H       1  ZINC000440379747    0.1000
     30 H30       -11.3904   -2.7478   52.6475 H       1  ZINC000440379747    0.1000
     31 H31       -12.5524   -1.3999   52.6789 H       1  ZINC000440379747    0.1000
     32 H32       -13.3024   -2.0933   54.9511 H       1  ZINC000440379747    0.0900
     33 H33       -12.1342   -3.4484   54.9187 H       1  ZINC000440379747    0.0900
     34 H34       -13.4656   -2.2879   57.2325 H       1  ZINC000440379747    0.0900
     35 H35       -12.2964   -3.6439   57.1999 H       1  ZINC000440379747    0.1000
     36 H36       -11.5518   -1.8756   59.5568 H       1  ZINC000440379747    0.1400
     37 H37        -9.5579    0.6966   60.5812 H       1  ZINC000440379747    0.4200
     38 H38       -10.4392    1.6675   62.2313 H       1  ZINC000440379747    0.0800
     39 H39       -11.4006    0.1604   62.1353 H       1  ZINC000440379747    0.1000
     40 H40       -12.1343    2.0896   63.8835 H       1  ZINC000440379747    0.1000
     41 H41       -12.1671    0.3736   64.4117 H       1  ZINC000440379747    0.0800
     42 H42        -9.9850    2.4794   64.8971 H       1  ZINC000440379747    0.1000
     43 H43       -10.7000    1.3257   66.0706 H       1  ZINC000440379747    0.1000
     44 H44        -7.2864    0.5567   63.9714 H       1  ZINC000440379747    0.1500
     45 H45        -7.9765    2.0875   64.5618 H       1  ZINC000440379747    0.1400
     46 H46        -8.1693    2.5837   67.2812 H       1  ZINC000440379747    0.4100
     47 H47        -8.6447    1.2032   68.1124 H       1  ZINC000440379747    0.4200
     48 H48        -8.5273    0.7673   58.0936 H       1  ZINC000440379747    0.1400
     49 H49        -9.1909    0.2505   55.7888 H       1  ZINC000440379747    0.1500
@<TRIPOS>BOND
     1     1     2    1
     2     1    29    1
     3     1    30    1
     4     1    31    1
     5     2     3    2
     6     2     4   am
     7     4    28    1
     8     4     5    1
     9     5     6    1
    10     5    32    1
    11     5    33    1
    12     6     7    1
    13     6    34    1
    14     6    35    1
    15     7    28   ar
    16     7     8   ar
    17     8     9   ar
    18     8    36    1
    19     9    10    1
    20     9    26   ar
    21    10    11   am
    22    10    37    1
    23    11    12    2
    24    11    13    1
    25    13    14    2
    26    13    15   am
    27    15    19    1
    28    15    16    1
    29    16    17    1
    30    16    38    1
    31    16    39    1
    32    17    18    1
    33    17    40    1
    34    17    41    1
    35    18    19    1
    36    18    42    1
    37    18    43    1
    38    19    20    1
    39    19    21    1
    40    21    22    1
    41    21    44    1
    42    21    45    1
    43    22    23   am
    44    22    24    2
    45    22    25    2
    46    23    46    1
    47    23    47    1
    48    26    27   ar
    49    26    48    1
    50    27    28   ar
    51    27    49    1
@<TRIPOS>SUBSTRUCTURE
     1 ZINC000440379747        1 TEMP              0 ****  ****    0 ROOT


##########                                Name:    ZINC000546142192
##########                DOCK_Rotatable_Bonds:                  12
##########                         Heavy_Atoms:                  31
##########                    Molecular_Weight:             420.511
##########                DOCK_Rotatable_Bonds:                  12
##########                       Formal_Charge:          -0.0599997
##########                     HBond_Acceptors:                   7
##########                        HBond_Donors:                   2
##########                         Heavy_Atoms:                  31
##########                          Grid_Score:          -36.314636
##########                     Grid_vdw_energy:          -37.106392
##########                      Grid_es_energy:            0.791755
##########           Internal_energy_repulsive:           12.223677

@<TRIPOS>MOLECULE
ZINC000546142192
 59 61 1 0 0
SMALL
USER_CHARGES


@<TRIPOS>ATOM
      1 C1        -15.8001   -2.6551   53.6749 C.3     1  ZINC000546142192    0.0300
      2 O2        -15.1052   -3.4553   54.6674 O.3     1  ZINC000546142192   -0.3600
      3 C3        -14.3410   -2.7981   55.5539 C.2     1  ZINC000546142192    0.4600
      4 O4        -14.4566   -1.6021   55.6815 O.2     1  ZINC000546142192   -0.5100
      5 C5        -13.3391   -3.5519   56.3900 C.3     1  ZINC000546142192   -0.0800
      6 H6        -12.9504   -2.8968   57.1695 H       1  ZINC000546142192    0.1100
      7 C7        -14.0193   -4.7622   57.0331 C.3     1  ZINC000546142192   -0.1500
      8 C8        -12.1876   -4.0264   55.5013 C.3     1  ZINC000546142192   -0.0600
      9 C9        -11.5591   -2.8396   54.8172 C.ar    1  ZINC000546142192   -0.1000
     10 C10       -11.0203   -1.8139   55.5719 C.ar    1  ZINC000546142192   -0.0900
     11 C11       -10.4433   -0.7251   54.9480 C.ar    1  ZINC000546142192   -0.1200
     12 C12       -10.4046   -0.6613   53.5614 C.ar    1  ZINC000546142192    0.1600
     13 N13        -9.8202    0.4402   52.9261 N.am    1  ZINC000546142192   -0.6900
     14 C14        -8.6291    0.3087   52.3093 C.2     1  ZINC000546142192    0.7100
     15 O15        -8.0623   -0.7670   52.3048 O.2     1  ZINC000546142192   -0.5700
     16 N16        -8.0662    1.3695   51.6974 N.am    1  ZINC000546142192   -0.7400
     17 C17        -6.7708    1.2269   51.0284 C.3     1  ZINC000546142192    0.2300
     18 C18        -5.7232    1.9940   51.7935 C.2     1  ZINC000546142192    0.1800
     19 N19        -5.8967    2.5704   52.9513 N.2     1  ZINC000546142192   -0.4700
     20 C20        -4.7516    3.1574   53.3294 C.2     1  ZINC000546142192   -0.0300
     21 C21        -3.8334    2.9364   52.3693 C.2     1  ZINC000546142192   -0.0400
     22 N22        -4.4478    2.1938   51.3972 N.pl3   1  ZINC000546142192   -0.4500
     23 C23        -3.8380    1.7131   50.1549 C.3     1  ZINC000546142192    0.1100
     24 C24        -2.6582    2.6137   49.7841 C.3     1  ZINC000546142192   -0.0900
     25 C25        -2.0309    2.1191   48.5061 C.ar    1  ZINC000546142192   -0.0900
     26 C26        -1.0122    1.1858   48.5522 C.ar    1  ZINC000546142192   -0.1100
     27 C27        -0.4370    0.7322   47.3799 C.ar    1  ZINC000546142192   -0.1200
     28 C28        -0.8807    1.2116   46.1616 C.ar    1  ZINC000546142192   -0.1200
     29 C29        -1.8999    2.1442   46.1156 C.ar    1  ZINC000546142192   -0.1200
     30 C30        -2.4781    2.5947   47.2877 C.ar    1  ZINC000546142192   -0.1100
     31 C31       -10.9465   -1.6932   52.8064 C.ar    1  ZINC000546142192   -0.1500
     32 C32       -11.5174   -2.7816   53.4363 C.ar    1  ZINC000546142192   -0.0900
     33 H33       -15.0731   -2.1012   53.0811 H       1  ZINC000546142192    0.0600
     34 H34       -16.3800   -3.3081   53.0228 H       1  ZINC000546142192    0.1000
     35 H35       -16.4688   -1.9552   54.1759 H       1  ZINC000546142192    0.0600
     36 H36       -14.4080   -5.4173   56.2535 H       1  ZINC000546142192    0.0600
     37 H37       -13.2946   -5.3074   57.6377 H       1  ZINC000546142192    0.0800
     38 H38       -14.8396   -4.4241   57.6661 H       1  ZINC000546142192    0.0700
     39 H39       -11.4400   -4.5306   56.1137 H       1  ZINC000546142192    0.0800
     40 H40       -12.5692   -4.7184   54.7506 H       1  ZINC000546142192    0.0800
     41 H41       -11.0511   -1.8639   56.6503 H       1  ZINC000546142192    0.1300
     42 H42       -10.0230    0.0759   55.5379 H       1  ZINC000546142192    0.1400
     43 H43       -10.2724    1.2984   52.9298 H       1  ZINC000546142192    0.4100
     44 H44        -8.5190    2.2273   51.7000 H       1  ZINC000546142192    0.4000
     45 H45        -6.4948    0.1730   50.9918 H       1  ZINC000546142192    0.0800
     46 H46        -6.8404    1.6198   50.0141 H       1  ZINC000546142192    0.1000
     47 H47        -4.5934    3.7104   54.2435 H       1  ZINC000546142192    0.1700
     48 H48        -2.8083    3.2761   52.3684 H       1  ZINC000546142192    0.1800
     49 H49        -3.4853    0.6913   50.2950 H       1  ZINC000546142192    0.1000
     50 H50        -4.5777    1.7354   49.3547 H       1  ZINC000546142192    0.0900
     51 H51        -3.0109    3.6355   49.6441 H       1  ZINC000546142192    0.0800
     52 H52        -1.9183    2.5912   50.5843 H       1  ZINC000546142192    0.0800
     53 H53        -0.6656    0.8113   49.5040 H       1  ZINC000546142192    0.1200
     54 H54         0.3594    0.0035   47.4160 H       1  ZINC000546142192    0.1200
     55 H55        -0.4307    0.8577   45.2458 H       1  ZINC000546142192    0.1200
     56 H56        -2.2463    2.5190   45.1638 H       1  ZINC000546142192    0.1200
     57 H57        -3.2745    3.3233   47.2517 H       1  ZINC000546142192    0.1200
     58 H58       -10.9178   -1.6465   51.7277 H       1  ZINC000546142192    0.1300
     59 H59       -11.9387   -3.5847   52.8496 H       1  ZINC000546142192    0.1300
@<TRIPOS>BOND
     1     1     2    1
     2     1    33    1
     3     1    34    1
     4     1    35    1
     5     2     3    1
     6     3     4    2
     7     3     5    1
     8     5     6    1
     9     5     7    1
    10     5     8    1
    11     7    36    1
    12     7    37    1
    13     7    38    1
    14     8     9    1
    15     8    39    1
    16     8    40    1
    17     9    32   ar
    18     9    10   ar
    19    10    11   ar
    20    10    41    1
    21    11    12   ar
    22    11    42    1
    23    12    13    1
    24    12    31   ar
    25    13    14   am
    26    13    43    1
    27    14    15    2
    28    14    16   am
    29    16    17    1
    30    16    44    1
    31    17    18    1
    32    17    45    1
    33    17    46    1
    34    18    22    1
    35    18    19    2
    36    19    20    1
    37    20    21    2
    38    20    47    1
    39    21    22    1
    40    21    48    1
    41    22    23    1
    42    23    24    1
    43    23    49    1
    44    23    50    1
    45    24    25    1
    46    24    51    1
    47    24    52    1
    48    25    30   ar
    49    25    26   ar
    50    26    27   ar
    51    26    53    1
    52    27    28   ar
    53    27    54    1
    54    28    29   ar
    55    28    55    1
    56    29    30   ar
    57    29    56    1
    58    30    57    1
    59    31    32   ar
    60    31    58    1
    61    32    59    1
@<TRIPOS>SUBSTRUCTURE
     1 ZINC000546142192        1 TEMP              0 ****  ****    0 ROOT


##########                                Name:     oleObject15.pdb
##########                DOCK_Rotatable_Bonds:                   9
##########                         Heavy_Atoms:                  29
##########                    Molecular_Weight:             395.545
##########                DOCK_Rotatable_Bonds:                   9
##########                       Formal_Charge:         0.000700183
##########                     HBond_Acceptors:                   5
##########                        HBond_Donors:                   1
##########                         Heavy_Atoms:                  29
##########                          Grid_Score:          -36.305820
##########                     Grid_vdw_energy:          -36.298019
##########                      Grid_es_energy:           -0.007801
##########           Internal_energy_repulsive:           11.724796

@<TRIPOS>MOLECULE
oleObject15.pdb
 62 64 1 0 0
SMALL
NO_CHARGES


@<TRIPOS>ATOM
      1 O         -11.7275   -2.3188   55.0436 O.3     1  UNL        -0.3745
      2 C         -11.2424   -3.6215   55.4402 C.3     1  UNL         0.0600
      3 C         -11.4299   -3.7731   56.9676 C.3     1  UNL         0.0217
      4 N         -10.3768   -3.1264   57.7849 N.4     1  UNL        -0.3010
      5 C         -10.4917   -1.6535   57.8887 C.3     1  UNL        -0.0010
      6 C          -9.2927   -1.0355   58.6405 C.3     1  UNL        -0.0289
      7 C          -9.0602   -1.6753   60.0304 C.3     1  UNL         0.0382
      8 C          -9.0320   -3.2197   59.9063 C.3     1  UNL        -0.0289
      9 C         -10.2177   -3.7923   59.0950 C.3     1  UNL        -0.0010
     10 C         -10.1015   -1.1862   61.0676 C.2     1  UNL         0.2156
     11 O         -11.2455   -1.6031   61.0777 O.2     1  UNL        -0.2774
     12 N          -9.7243   -0.2798   62.0503 N.am    1  UNL        -0.3025
     13 C         -10.5666    0.2962   63.1153 C.3     1  UNL         0.0900
     14 C          -9.8127    0.4927   64.4294 C.ar    1  UNL        -0.0217
     15 C          -8.7187   -0.3275   64.7719 C.ar    1  UNL        -0.0568
     16 C          -8.0446   -0.1412   65.9897 C.ar    1  UNL        -0.0619
     17 C          -8.4561    0.8683   66.8737 C.ar    1  UNL        -0.0622
     18 C          -9.5408    1.6932   66.5373 C.ar    1  UNL        -0.0619
     19 C         -10.2147    1.5069   65.3192 C.ar    1  UNL        -0.0568
     20 C         -11.2254    1.5988   62.6709 C.ar    1  UNL         0.0652
     21 C         -12.4821    2.0014   63.1684 C.ar    1  UNL        -0.0383
     22 C         -13.0407    3.2069   62.7143 C.ar    1  UNL        -0.0588
     23 C         -12.3241    3.9676   61.7775 C.ar    1  UNL        -0.0438
     24 C         -11.0787    3.4918   61.3328 C.ar    1  UNL         0.0272
     25 N         -10.5408    2.3342   61.7676 N.ar    1  UNL        -0.2590
     26 C         -12.0029   -2.0529   53.6477 C.3     1  UNL         0.0599
     27 C         -13.2795   -2.8169   53.2150 C.3     1  UNL        -0.0364
     28 C         -12.2481   -0.5290   53.5713 C.3     1  UNL        -0.0364
     29 C         -10.7785   -2.4403   52.7813 C.3     1  UNL        -0.0364
     30 H         -10.1758   -3.7197   55.2046 H       1  UNL         0.0581
     31 H         -11.7802   -4.4234   54.9230 H       1  UNL         0.0581
     32 H         -11.4523   -4.8467   57.1942 H       1  UNL         0.0455
     33 H         -12.4096   -3.3616   57.2418 H       1  UNL         0.0455
     34 H         -11.4225   -1.3893   58.4069 H       1  UNL         0.0431
     35 H         -10.5250   -1.2005   56.8911 H       1  UNL         0.0431
     36 H          -9.4378    0.0465   58.7381 H       1  UNL         0.0288
     37 H          -8.3909   -1.1764   58.0305 H       1  UNL         0.0288
     38 H          -8.0607   -1.3819   60.3618 H       1  UNL         0.0402
     39 H          -9.0065   -3.6771   60.9035 H       1  UNL         0.0288
     40 H          -8.1010   -3.5130   59.4039 H       1  UNL         0.0288
     41 H         -11.1421   -3.6863   59.6763 H       1  UNL         0.0431
     42 H         -10.0480   -4.8664   58.9459 H       1  UNL         0.0431
     43 H          -8.7363   -0.0646   62.0884 H       1  UNL         0.1504
     44 H         -11.3810   -0.4174   63.2939 H       1  UNL         0.0624
     45 H          -8.3949   -1.1172   64.1003 H       1  UNL         0.0626
     46 H          -7.2055   -0.7806   66.2486 H       1  UNL         0.0623
     47 H          -7.9351    1.0121   67.8160 H       1  UNL         0.0623
     48 H          -9.8590    2.4767   67.2192 H       1  UNL         0.0623
     49 H         -11.0523    2.1516   65.0677 H       1  UNL         0.0626
     50 H         -13.0158    1.3927   63.8919 H       1  UNL         0.0643
     51 H         -14.0068    3.5429   63.0797 H       1  UNL         0.0624
     52 H         -12.7236    4.9053   61.4028 H       1  UNL         0.0639
     53 H         -10.4938    4.0540   60.6058 H       1  UNL         0.0840
     54 H         -14.1015   -2.6325   53.9185 H       1  UNL         0.0260
     55 H         -13.1059   -3.8986   53.1659 H       1  UNL         0.0260
     56 H         -13.6070   -2.4917   52.2195 H       1  UNL         0.0260
     57 H         -13.0934   -0.2370   54.2079 H       1  UNL         0.0260
     58 H         -12.4736   -0.2167   52.5438 H       1  UNL         0.0260
     59 H         -11.3635    0.0265   53.9083 H       1  UNL         0.0260
     60 H         -10.6312   -3.5271   52.7558 H       1  UNL         0.0260
     61 H          -9.8624   -1.9783   53.1711 H       1  UNL         0.0260
     62 H         -10.9136   -2.1019   51.7462 H       1  UNL         0.0260
@<TRIPOS>BOND
     1     1     2    1
     2     1    26    1
     3     2     3    1
     4     2    30    1
     5     2    31    1
     6     3     4    1
     7     3    32    1
     8     3    33    1
     9     4     5    1
    10     4     9    1
    11     5     6    1
    12     5    34    1
    13     5    35    1
    14     6     7    1
    15     6    36    1
    16     6    37    1
    17     7     8    1
    18     7    10    1
    19     7    38    1
    20     8     9    1
    21     8    39    1
    22     8    40    1
    23     9    41    1
    24     9    42    1
    25    10    11    2
    26    10    12   am
    27    12    13    1
    28    12    43    1
    29    13    14    1
    30    13    20    1
    31    13    44    1
    32    14    15   ar
    33    14    19   ar
    34    15    16   ar
    35    15    45    1
    36    16    17   ar
    37    16    46    1
    38    17    18   ar
    39    17    47    1
    40    18    19   ar
    41    18    48    1
    42    19    49    1
    43    20    21   ar
    44    20    25   ar
    45    21    22   ar
    46    21    50    1
    47    22    23   ar
    48    22    51    1
    49    23    24   ar
    50    23    52    1
    51    24    25   ar
    52    24    53    1
    53    26    27    1
    54    26    28    1
    55    26    29    1
    56    27    54    1
    57    27    55    1
    58    27    56    1
    59    28    57    1
    60    28    58    1
    61    28    59    1
    62    29    60    1
    63    29    61    1
    64    29    62    1
@<TRIPOS>SUBSTRUCTURE
     1 UNL         1 TEMP              0 ****  ****    0 ROOT


##########                                Name:    ZINC000767361237
##########                DOCK_Rotatable_Bonds:                  10
##########                         Heavy_Atoms:                  30
##########                    Molecular_Weight:             409.439
##########                DOCK_Rotatable_Bonds:                  10
##########                       Formal_Charge:          -0.0300005
##########                     HBond_Acceptors:                   7
##########                        HBond_Donors:                   1
##########                         Heavy_Atoms:                  30
##########                          Grid_Score:          -36.296654
##########                     Grid_vdw_energy:          -36.869308
##########                      Grid_es_energy:            0.572655
##########           Internal_energy_repulsive:           14.232790

@<TRIPOS>MOLECULE
ZINC000767361237
 53 55 1 0 0
SMALL
USER_CHARGES


@<TRIPOS>ATOM
      1 C1        -16.1440   -0.1805   55.3945 C.3     1  ZINC000767361237   -0.1200
      2 C2        -14.8157   -0.7617   54.9834 C.ar    1  ZINC000767361237   -0.0900
      3 C3        -14.7616   -1.7411   54.0094 C.ar    1  ZINC000767361237   -0.1200
      4 C4        -13.5432   -2.2743   53.6323 C.ar    1  ZINC000767361237   -0.1100
      5 C5        -12.3790   -1.8278   54.2290 C.ar    1  ZINC000767361237   -0.0800
      6 C6        -11.0508   -2.4094   53.8182 C.3     1  ZINC000767361237   -0.0800
      7 H7        -10.2463   -1.8535   54.2996 H       1  ZINC000767361237    0.0900
      8 C8        -10.8996   -2.3123   52.2989 C.3     1  ZINC000767361237   -0.1500
      9 C9        -10.9828   -3.8771   54.2448 C.3     1  ZINC000767361237    0.1300
     10 H10        -9.9611   -4.2406   54.1344 H       1  ZINC000767361237    0.1400
     11 O11       -11.8561   -4.6532   53.4221 O.3     1  ZINC000767361237   -0.5200
     12 C12       -11.4074   -4.0017   55.6855 C.2     1  ZINC000767361237    0.4300
     13 O13       -12.5518   -4.2793   55.9561 O.2     1  ZINC000767361237   -0.5000
     14 O14       -10.5142   -3.8043   56.6679 O.3     1  ZINC000767361237   -0.3300
     15 C15       -10.9984   -3.9195   58.0319 C.3     1  ZINC000767361237    0.0100
     16 C16        -9.8399   -3.7987   58.9880 C.2     1  ZINC000767361237    0.3700
     17 O17        -8.7971   -4.3581   58.7469 O.2     1  ZINC000767361237   -0.4200
     18 C18        -9.9827   -2.9800   60.2451 C.3     1  ZINC000767361237   -0.1800
     19 C19        -9.1941   -1.6771   60.0975 C.3     1  ZINC000767361237    0.1200
     20 N20        -9.4698   -0.8070   61.2433 N.am    1  ZINC000767361237   -0.5800
     21 C21        -8.9509   -0.9798   62.4724 C.2     1  ZINC000767361237    0.5700
     22 O22        -8.1915   -1.8680   62.8028 O.2     1  ZINC000767361237   -0.4600
     23 C23        -9.4591    0.0930   63.3533 C.ar    1  ZINC000767361237   -0.1400
     24 C24        -9.2741    0.4187   64.6869 C.ar    1  ZINC000767361237   -0.0400
     25 C25        -9.9181    1.5248   65.2201 C.ar    1  ZINC000767361237   -0.0900
     26 C26       -10.7425    2.3035   64.4304 C.ar    1  ZINC000767361237   -0.0900
     27 C27       -10.9372    1.9896   63.0941 C.ar    1  ZINC000767361237   -0.0400
     28 C28       -10.3003    0.8874   62.5476 C.ar    1  ZINC000767361237   -0.1400
     29 C29       -10.2705    0.2733   61.2035 C.2     1  ZINC000767361237    0.5700
     30 O30       -10.8702    0.6754   60.2269 O.2     1  ZINC000767361237   -0.4600
     31 C31       -12.4330   -0.8474   55.2020 C.ar    1  ZINC000767361237   -0.1100
     32 C32       -13.6510   -0.3115   55.5764 C.ar    1  ZINC000767361237   -0.1200
     33 H33       -16.3733    0.6810   54.7674 H       1  ZINC000767361237    0.0700
     34 H34       -16.9227   -0.9339   55.2757 H       1  ZINC000767361237    0.0700
     35 H35       -16.0967    0.1319   56.4377 H       1  ZINC000767361237    0.0700
     36 H36       -15.6712   -2.0899   53.5432 H       1  ZINC000767361237    0.1200
     37 H37       -13.5010   -3.0400   52.8718 H       1  ZINC000767361237    0.1200
     38 H38        -9.9389   -2.7329   52.0017 H       1  ZINC000767361237    0.0800
     39 H39       -11.7042   -2.8683   51.8174 H       1  ZINC000767361237    0.0700
     40 H40       -10.9480   -1.2666   51.9949 H       1  ZINC000767361237    0.0600
     41 H41       -12.7847   -4.3887   53.4750 H       1  ZINC000767361237    0.3900
     42 H42       -11.7178   -3.1251   58.2304 H       1  ZINC000767361237    0.1100
     43 H43       -11.4805   -4.8880   58.1656 H       1  ZINC000767361237    0.1100
     44 H44       -11.0352   -2.7507   60.4117 H       1  ZINC000767361237    0.1100
     45 H45        -9.5952   -3.5451   61.0928 H       1  ZINC000767361237    0.1100
     46 H46        -8.1279   -1.9001   60.0588 H       1  ZINC000767361237    0.1100
     47 H47        -9.4935   -1.1734   59.1784 H       1  ZINC000767361237    0.1100
     48 H48        -8.6311   -0.1865   65.3088 H       1  ZINC000767361237    0.1400
     49 H49        -9.7747    1.7793   66.2598 H       1  ZINC000767361237    0.1400
     50 H50       -11.2390    3.1624   64.8573 H       1  ZINC000767361237    0.1400
     51 H51       -11.5823    2.6020   62.4815 H       1  ZINC000767361237    0.1400
     52 H52       -11.5233   -0.4983   55.6679 H       1  ZINC000767361237    0.1200
     53 H53       -13.6933    0.4544   56.3366 H       1  ZINC000767361237    0.1200
@<TRIPOS>BOND
     1     1     2    1
     2     1    33    1
     3     1    34    1
     4     1    35    1
     5     2    32   ar
     6     2     3   ar
     7     3     4   ar
     8     3    36    1
     9     4     5   ar
    10     4    37    1
    11     5     6    1
    12     5    31   ar
    13     6     7    1
    14     6     8    1
    15     6     9    1
    16     8    38    1
    17     8    39    1
    18     8    40    1
    19     9    10    1
    20     9    11    1
    21     9    12    1
    22    11    41    1
    23    12    13    2
    24    12    14    1
    25    14    15    1
    26    15    16    1
    27    15    42    1
    28    15    43    1
    29    16    17    2
    30    16    18    1
    31    18    19    1
    32    18    44    1
    33    18    45    1
    34    19    20    1
    35    19    46    1
    36    19    47    1
    37    20    29   am
    38    20    21   am
    39    21    22    2
    40    21    23    1
    41    23    28   ar
    42    23    24   ar
    43    24    25   ar
    44    24    48    1
    45    25    26   ar
    46    25    49    1
    47    26    27   ar
    48    26    50    1
    49    27    28   ar
    50    27    51    1
    51    28    29    1
    52    29    30    2
    53    31    32   ar
    54    31    52    1
    55    32    53    1
@<TRIPOS>SUBSTRUCTURE
     1 ZINC000767361237        1 TEMP              0 ****  ****    0 ROOT


##########                                Name:     oleObject70.pdb
##########                DOCK_Rotatable_Bonds:                   9
##########                         Heavy_Atoms:                  35
##########                    Molecular_Weight:             504.458
##########                DOCK_Rotatable_Bonds:                   9
##########                       Formal_Charge:          0.00010002
##########                     HBond_Acceptors:                   6
##########                        HBond_Donors:                   2
##########                         Heavy_Atoms:                  35
##########                          Grid_Score:          -36.291149
##########                     Grid_vdw_energy:          -36.307289
##########                      Grid_es_energy:            0.016139
##########           Internal_energy_repulsive:           84.013573

@<TRIPOS>MOLECULE
oleObject70.pdb
 62 65 1 0 0
SMALL
NO_CHARGES


@<TRIPOS>ATOM
      1 C         -13.4444    1.8788   48.4101 C.ar    1  UNL        -0.0620
      2 C         -14.1611    2.1868   49.5752 C.ar    1  UNL        -0.0590
      3 C         -14.9293    1.2039   50.2291 C.ar    1  UNL        -0.0456
      4 C         -14.9716   -0.1155   49.7104 C.ar    1  UNL        -0.0187
      5 C         -14.2564   -0.4053   48.5280 C.ar    1  UNL        -0.0565
      6 C         -13.4964    0.5819   47.8836 C.ar    1  UNL        -0.0619
      7 C         -15.7998   -1.2158   50.3977 C.3     1  UNL         0.0909
      8 C         -16.4466   -2.2132   49.4210 C.ar    1  UNL         0.0681
      9 C         -17.7810   -2.6634   49.5876 C.ar    1  UNL        -0.0272
     10 C         -18.2998   -3.5803   48.6538 C.ar    1  UNL        -0.0559
     11 C         -17.4880   -4.0120   47.5952 C.ar    1  UNL        -0.0435
     12 C         -16.1818   -3.5096   47.5024 C.ar    1  UNL         0.0272
     13 N         -15.6768   -2.6326   48.3896 N.ar    1  UNL        -0.2587
     14 C         -18.6625   -2.1941   50.7397 C.3     1  UNL        -0.0379
     15 N         -15.0932   -1.8371   51.5396 N.am    1  UNL        -0.2987
     16 C         -15.6650   -2.2890   52.7226 C.2     1  UNL         0.2437
     17 O         -16.8624   -2.2234   52.9417 O.2     1  UNL        -0.2719
     18 C         -14.7179   -2.8871   53.7354 C.ar    1  UNL         0.0371
     19 C         -13.3239   -2.9534   53.5135 C.ar    1  UNL        -0.0494
     20 C         -12.4715   -3.5153   54.4783 C.ar    1  UNL        -0.0570
     21 C         -12.9924   -4.0213   55.6807 C.ar    1  UNL        -0.0341
     22 C         -14.3766   -3.9573   55.9105 C.ar    1  UNL        -0.0570
     23 C         -15.2303   -3.3968   54.9466 C.ar    1  UNL        -0.0494
     24 C         -12.0665   -4.6217   56.7252 C.3     1  UNL         0.0208
     25 N         -11.8924   -3.7171   57.8686 N.4     1  UNL        -0.3086
     26 C         -11.0102   -2.5756   57.5924 C.3     1  UNL         0.0223
     27 C         -10.4616   -1.9703   58.8775 C.ar    1  UNL        -0.0154
     28 C         -10.9201   -0.7062   59.2951 C.ar    1  UNL        -0.0548
     29 C         -10.4343   -0.1269   60.4787 C.ar    1  UNL        -0.0431
     30 C          -9.4857   -0.8104   61.2549 C.ar    1  UNL         0.0421
     31 C          -9.0243   -2.0726   60.8497 C.ar    1  UNL        -0.0245
     32 C          -9.5094   -2.6534   59.6656 C.ar    1  UNL         0.0465
     33 CL         -8.9090   -4.2365   59.2060 Cl      1  UNL        -0.0839
     34 CL         -8.8801   -0.0898   62.7311 Cl      1  UNL        -0.0843
     35 C         -15.7104    1.6042   51.4769 C.3     1  UNL        -0.0394
     36 H         -12.8589    2.6459   47.9115 H       1  UNL         0.0623
     37 H         -14.1229    3.1991   49.9676 H       1  UNL         0.0626
     38 H         -14.2933   -1.3983   48.0926 H       1  UNL         0.0627
     39 H         -12.9531    0.3415   46.9743 H       1  UNL         0.0623
     40 H         -16.6377   -0.6988   50.8749 H       1  UNL         0.0624
     41 H         -19.3152   -3.9549   48.7472 H       1  UNL         0.0627
     42 H         -17.8618   -4.7204   46.8620 H       1  UNL         0.0639
     43 H         -15.5182   -3.8188   46.6960 H       1  UNL         0.0840
     44 H         -18.2631   -2.5292   51.7046 H       1  UNL         0.0280
     45 H         -19.6820   -2.5903   50.6541 H       1  UNL         0.0280
     46 H         -18.7405   -1.1004   50.7621 H       1  UNL         0.0280
     47 H         -14.0914   -1.9367   51.4533 H       1  UNL         0.1508
     48 H         -12.8841   -2.5734   52.5972 H       1  UNL         0.0631
     49 H         -11.4016   -3.5542   54.2925 H       1  UNL         0.0626
     50 H         -14.7929   -4.3398   56.8384 H       1  UNL         0.0626
     51 H         -16.2973   -3.3582   55.1480 H       1  UNL         0.0631
     52 H         -11.0919   -4.8304   56.2647 H       1  UNL         0.0479
     53 H         -12.4826   -5.5778   57.0685 H       1  UNL         0.0479
     54 H         -11.5174   -4.2448   58.6566 H       1  UNL         0.1229
     55 H         -11.5670   -1.8079   57.0396 H       1  UNL         0.0480
     56 H         -10.1753   -2.8929   56.9543 H       1  UNL         0.0480
     57 H         -11.6578   -0.1723   58.7024 H       1  UNL         0.0627
     58 H         -10.7943    0.8487   60.7930 H       1  UNL         0.0639
     59 H          -8.2925   -2.6014   61.4537 H       1  UNL         0.0654
     60 H         -15.6807    2.6882   51.6439 H       1  UNL         0.0280
     61 H         -15.2966    1.1233   52.3719 H       1  UNL         0.0280
     62 H         -16.7667    1.3194   51.3926 H       1  UNL         0.0280
@<TRIPOS>BOND
     1     1     2   ar
     2     1     6   ar
     3     1    36    1
     4     2     3   ar
     5     2    37    1
     6     3     4   ar
     7     3    35    1
     8     4     5   ar
     9     4     7    1
    10     5     6   ar
    11     5    38    1
    12     6    39    1
    13     7     8    1
    14     7    15    1
    15     7    40    1
    16     8     9   ar
    17     8    13   ar
    18     9    10   ar
    19     9    14    1
    20    10    11   ar
    21    10    41    1
    22    11    12   ar
    23    11    42    1
    24    12    13   ar
    25    12    43    1
    26    14    44    1
    27    14    45    1
    28    14    46    1
    29    15    16   am
    30    15    47    1
    31    16    17    2
    32    16    18    1
    33    18    19   ar
    34    18    23   ar
    35    19    20   ar
    36    19    48    1
    37    20    21   ar
    38    20    49    1
    39    21    22   ar
    40    21    24    1
    41    22    23   ar
    42    22    50    1
    43    23    51    1
    44    24    25    1
    45    24    52    1
    46    24    53    1
    47    25    26    1
    48    25    54    1
    49    26    27    1
    50    26    55    1
    51    26    56    1
    52    27    28   ar
    53    27    32   ar
    54    28    29   ar
    55    28    57    1
    56    29    30   ar
    57    29    58    1
    58    30    31   ar
    59    30    34    1
    60    31    32   ar
    61    31    59    1
    62    32    33    1
    63    35    60    1
    64    35    61    1
    65    35    62    1
@<TRIPOS>SUBSTRUCTURE
     1 UNL         1 TEMP              0 ****  ****    0 ROOT


##########                                Name:    ZINC000058043838
##########                DOCK_Rotatable_Bonds:                   8
##########                         Heavy_Atoms:                  29
##########                    Molecular_Weight:             412.469
##########                DOCK_Rotatable_Bonds:                   8
##########                       Formal_Charge:           0.0200001
##########                     HBond_Acceptors:                   9
##########                        HBond_Donors:                   0
##########                         Heavy_Atoms:                  29
##########                          Grid_Score:          -36.290577
##########                     Grid_vdw_energy:          -36.980350
##########                      Grid_es_energy:            0.689772
##########           Internal_energy_repulsive:           14.293702

@<TRIPOS>MOLECULE
ZINC000058043838
 49 51 1 0 0
SMALL
USER_CHARGES


@<TRIPOS>ATOM
      1 C1        -11.6493   -2.3972   51.9835 C.3     1  ZINC000058043838    0.0300
      2 O2        -10.6678   -2.1017   52.9793 O.3     1  ZINC000058043838   -0.3800
      3 C3        -11.0998   -2.3616   54.3164 C.3     1  ZINC000058043838    0.0300
      4 C4        -10.9203   -3.8482   54.6305 C.3     1  ZINC000058043838    0.1000
      5 N5        -11.7134   -4.1969   55.8118 N.am    1  ZINC000058043838   -0.5200
      6 C6        -12.9975   -4.5816   55.6718 C.2     1  ZINC000058043838    0.5100
      7 O7        -13.4968   -4.6377   54.5679 O.2     1  ZINC000058043838   -0.4500
      8 C8        -13.8130   -4.9421   56.8868 C.3     1  ZINC000058043838   -0.0900
      9 C9        -14.5525   -3.7232   57.3751 C.ar    1  ZINC000058043838   -0.1400
     10 C10       -14.8449   -2.6843   56.5050 C.ar    1  ZINC000058043838   -0.0500
     11 C11       -15.5274   -1.5825   56.9983 C.ar    1  ZINC000058043838   -0.1700
     12 C12       -15.8909   -1.5570   58.3312 C.ar    1  ZINC000058043838    0.1300
     13 C13       -16.6333   -0.3650   58.8780 C.3     1  ZINC000058043838   -0.1100
     14 N14       -15.5959   -2.5638   59.1304 N.ar    1  ZINC000058043838   -0.4800
     15 C15       -14.9528   -3.6293   58.6948 C.ar    1  ZINC000058043838    0.1200
     16 C16       -11.1419   -4.1310   57.0766 C.2     1  ZINC000058043838    0.3100
     17 N17       -11.2340   -3.1248   57.8890 N.2     1  ZINC000058043838   -0.4700
     18 C18       -10.6227   -3.2384   59.0598 C.2     1  ZINC000058043838    0.1100
     19 C19       -10.6521   -2.1598   60.0775 C.ar    1  ZINC000058043838    0.0400
     20 C20        -9.4872   -1.8071   60.7568 C.ar    1  ZINC000058043838   -0.0800
     21 C21        -9.5205   -0.8024   61.7024 C.ar    1  ZINC000058043838   -0.0500
     22 C22       -10.7069   -0.1459   61.9764 C.ar    1  ZINC000058043838   -0.0400
     23 N23       -10.7361    0.9310   62.9918 N.pl3   1  ZINC000058043838    0.0300
     24 O24        -9.7170    1.2374   63.5841 O.2     1  ZINC000058043838   -0.1600
     25 O25       -11.7795    1.5106   63.2349 O.2     1  ZINC000058043838   -0.1600
     26 C26       -11.8659   -0.4914   61.3050 C.ar    1  ZINC000058043838   -0.0500
     27 C27       -11.8435   -1.4913   60.3540 C.ar    1  ZINC000058043838   -0.1100
     28 C28        -9.9741   -4.3995   59.2612 C.2     1  ZINC000058043838   -0.2600
     29 S29       -10.1857   -5.4042   57.8291 S.3     1  ZINC000058043838    0.1500
     30 H30       -11.9142   -3.4532   52.0365 H       1  ZINC000058043838    0.0500
     31 H31       -12.5380   -1.7906   52.1580 H       1  ZINC000058043838    0.0400
     32 H32       -11.2446   -2.1731   50.9966 H       1  ZINC000058043838    0.0900
     33 H33       -10.5056   -1.7689   55.0118 H       1  ZINC000058043838    0.0600
     34 H34       -12.1515   -2.0934   54.4170 H       1  ZINC000058043838    0.0800
     35 H35       -11.2548   -4.4422   53.7800 H       1  ZINC000058043838    0.1200
     36 H36        -9.8679   -4.0537   54.8259 H       1  ZINC000058043838    0.1000
     37 H37       -14.5292   -5.7211   56.6256 H       1  ZINC000058043838    0.1100
     38 H38       -13.1517   -5.3053   57.6735 H       1  ZINC000058043838    0.1100
     39 H39       -14.5478   -2.7317   55.4678 H       1  ZINC000058043838    0.1300
     40 H40       -15.7715   -0.7547   56.3490 H       1  ZINC000058043838    0.1400
     41 H41       -17.7064   -0.5266   58.7747 H       1  ZINC000058043838    0.0800
     42 H42       -16.3854   -0.2344   59.9313 H       1  ZINC000058043838    0.0800
     43 H43       -16.3454    0.5281   58.3235 H       1  ZINC000058043838    0.0800
     44 H44       -14.7287   -4.4343   59.3791 H       1  ZINC000058043838    0.1500
     45 H45        -8.5606   -2.3192   60.5440 H       1  ZINC000058043838    0.1600
     46 H46        -8.6187   -0.5285   62.2296 H       1  ZINC000058043838    0.1600
     47 H47       -12.7893    0.0245   61.5230 H       1  ZINC000058043838    0.1600
     48 H48       -12.7489   -1.7600   59.8301 H       1  ZINC000058043838    0.1500
     49 H49        -9.4221   -4.6706   60.1490 H       1  ZINC000058043838    0.1800
@<TRIPOS>BOND
     1     1     2    1
     2     1    30    1
     3     1    31    1
     4     1    32    1
     5     2     3    1
     6     3     4    1
     7     3    33    1
     8     3    34    1
     9     4     5    1
    10     4    35    1
    11     4    36    1
    12     5     6   am
    13     5    16    1
    14     6     7    2
    15     6     8    1
    16     8     9    1
    17     8    37    1
    18     8    38    1
    19     9    15   ar
    20     9    10   ar
    21    10    11   ar
    22    10    39    1
    23    11    12   ar
    24    11    40    1
    25    12    13    1
    26    12    14   ar
    27    13    41    1
    28    13    42    1
    29    13    43    1
    30    14    15   ar
    31    15    44    1
    32    16    29    1
    33    16    17    2
    34    17    18    1
    35    18    19    1
    36    18    28    2
    37    19    27   ar
    38    19    20   ar
    39    20    21   ar
    40    20    45    1
    41    21    22   ar
    42    21    46    1
    43    22    23    1
    44    22    26   ar
    45    23    24    2
    46    23    25    2
    47    26    27   ar
    48    26    47    1
    49    27    48    1
    50    28    29    1
    51    28    49    1
@<TRIPOS>SUBSTRUCTURE
     1 ZINC000058043838        1 TEMP              0 ****  ****    0 ROOT


##########                                Name:    ZINC000487792031
##########                DOCK_Rotatable_Bonds:                  12
##########                         Heavy_Atoms:                  29
##########                    Molecular_Weight:             414.569
##########                DOCK_Rotatable_Bonds:                  12
##########                       Formal_Charge:          -0.0100001
##########                     HBond_Acceptors:                   6
##########                        HBond_Donors:                   1
##########                         Heavy_Atoms:                  29
##########                          Grid_Score:          -36.277885
##########                     Grid_vdw_energy:          -34.348583
##########                      Grid_es_energy:           -1.929301
##########           Internal_energy_repulsive:           18.816311

@<TRIPOS>MOLECULE
ZINC000487792031
 59 60 1 0 0
SMALL
USER_CHARGES


@<TRIPOS>ATOM
      1 C1         -8.1165    0.0001   66.4412 C.2     1  ZINC000487792031   -0.1900
      2 C2         -8.6562   -0.2439   65.2727 C.2     1  ZINC000487792031   -0.1500
      3 C3         -9.7071    0.6839   64.7196 C.3     1  ZINC000487792031   -0.0900
      4 C4         -9.6258    0.6936   63.1919 C.3     1  ZINC000487792031   -0.0900
      5 C5        -10.6995    1.6278   62.6299 C.3     1  ZINC000487792031   -0.0700
      6 H6        -10.5484    2.6331   63.0232 H       1  ZINC000487792031    0.1100
      7 C7        -10.6031    1.6569   61.1263 C.2     1  ZINC000487792031    0.5200
      8 O8        -11.5850    1.9088   60.4605 O.2     1  ZINC000487792031   -0.5300
      9 N9         -9.4258    1.4027   60.5214 N.am    1  ZINC000487792031   -0.7200
     10 C10        -9.3324    1.4292   59.0597 C.3     1  ZINC000487792031    0.1500
     11 C11        -9.7160    0.0806   58.5073 C.ar    1  ZINC000487792031   -0.0500
     12 C12       -10.5870   -0.0057   57.4373 C.ar    1  ZINC000487792031   -0.1200
     13 C13       -10.9388   -1.2427   56.9306 C.ar    1  ZINC000487792031   -0.0200
     14 C14       -10.4191   -2.3935   57.4934 C.ar    1  ZINC000487792031   -0.6700
     15 S15       -10.8680   -3.9703   56.8478 S.o2    1  ZINC000487792031    2.6900
     16 O16       -10.1134   -4.1458   55.6565 O.2     1  ZINC000487792031   -0.9500
     17 O17       -10.8200   -4.8792   57.9391 O.2     1  ZINC000487792031   -0.9500
     18 N18       -12.4556   -3.8771   56.3862 N.am    1  ZINC000487792031   -1.0000
     19 C19       -13.4878   -3.5529   57.3739 C.3     1  ZINC000487792031    0.1200
     20 C20       -14.3759   -4.7774   57.6040 C.3     1  ZINC000487792031   -0.1800
     21 C21       -12.8278   -4.1190   54.9900 C.3     1  ZINC000487792031    0.1100
     22 C22       -12.9058   -2.7851   54.2446 C.3     1  ZINC000487792031   -0.1800
     23 C23        -9.5471   -2.3071   58.5625 C.ar    1  ZINC000487792031   -0.0200
     24 C24        -9.1923   -1.0698   59.0668 C.ar    1  ZINC000487792031   -0.1200
     25 C25       -12.0621    1.1289   63.0363 C.ar    1  ZINC000487792031   -0.0800
     26 C26       -12.5868   -0.0061   62.4467 C.ar    1  ZINC000487792031   -0.1100
     27 C27       -13.8369   -0.4637   62.8196 C.ar    1  ZINC000487792031   -0.1100
     28 C28       -14.5619    0.2134   63.7823 C.ar    1  ZINC000487792031   -0.1200
     29 C29       -14.0368    1.3477   64.3726 C.ar    1  ZINC000487792031   -0.1200
     30 C30       -12.7850    1.8028   64.0028 C.ar    1  ZINC000487792031   -0.1100
     31 H31        -7.3633   -0.6647   66.8376 H       1  ZINC000487792031    0.1000
     32 H32        -8.4215    0.8685   67.0062 H       1  ZINC000487792031    0.1000
     33 H33        -8.3480   -1.1099   64.7058 H       1  ZINC000487792031    0.1100
     34 H34       -10.6942    0.3403   65.0289 H       1  ZINC000487792031    0.0700
     35 H35        -9.5380    1.6918   65.0989 H       1  ZINC000487792031    0.0700
     36 H36        -8.6412    1.0442   62.8825 H       1  ZINC000487792031    0.0800
     37 H37        -9.7878   -0.3155   62.8130 H       1  ZINC000487792031    0.0700
     38 H38        -8.6402    1.2023   61.0540 H       1  ZINC000487792031    0.4000
     39 H39       -10.0083    2.1886   58.6662 H       1  ZINC000487792031    0.0800
     40 H40        -8.3099    1.6652   58.7652 H       1  ZINC000487792031    0.0800
     41 H41       -10.9929    0.8933   56.9976 H       1  ZINC000487792031    0.1400
     42 H42       -11.6198   -1.3103   56.0951 H       1  ZINC000487792031    0.1400
     43 H43       -13.0148   -3.2656   58.3129 H       1  ZINC000487792031    0.0800
     44 H44       -14.0962   -2.7268   57.0059 H       1  ZINC000487792031    0.0800
     45 H45       -14.8490   -5.0647   56.6650 H       1  ZINC000487792031    0.0600
     46 H46       -13.7676   -5.6035   57.9721 H       1  ZINC000487792031    0.0600
     47 H47       -15.1439   -4.5362   58.3389 H       1  ZINC000487792031    0.0700
     48 H48       -12.0782   -4.7550   54.5191 H       1  ZINC000487792031    0.0900
     49 H49       -13.7985   -4.6132   54.9531 H       1  ZINC000487792031    0.0900
     50 H50       -13.6554   -2.1491   54.7156 H       1  ZINC000487792031    0.0600
     51 H51       -11.9350   -2.2909   54.2815 H       1  ZINC000487792031    0.0600
     52 H52       -13.1827   -2.9651   53.2059 H       1  ZINC000487792031    0.0700
     53 H53        -9.1408   -3.2061   59.0020 H       1  ZINC000487792031    0.1400
     54 H54        -8.5109   -1.0024   59.9021 H       1  ZINC000487792031    0.1400
     55 H55       -12.0203   -0.5349   61.6946 H       1  ZINC000487792031    0.1200
     56 H56       -14.2471   -1.3499   62.3584 H       1  ZINC000487792031    0.1200
     57 H57       -15.5388   -0.1439   64.0732 H       1  ZINC000487792031    0.1200
     58 H58       -14.6034    1.8768   65.1245 H       1  ZINC000487792031    0.1200
     59 H59       -12.3747    2.6892   64.4640 H       1  ZINC000487792031    0.1200
@<TRIPOS>BOND
     1     1     2    2
     2     1    31    1
     3     1    32    1
     4     2     3    1
     5     2    33    1
     6     3     4    1
     7     3    34    1
     8     3    35    1
     9     4     5    1
    10     4    36    1
    11     4    37    1
    12     5     6    1
    13     5     7    1
    14     5    25    1
    15     7     8    2
    16     7     9   am
    17     9    10    1
    18     9    38    1
    19    10    11    1
    20    10    39    1
    21    10    40    1
    22    11    24   ar
    23    11    12   ar
    24    12    13   ar
    25    12    41    1
    26    13    14   ar
    27    13    42    1
    28    14    15    1
    29    14    23   ar
    30    15    16    2
    31    15    17    2
    32    15    18   am
    33    18    19    1
    34    18    21    1
    35    19    20    1
    36    19    43    1
    37    19    44    1
    38    20    45    1
    39    20    46    1
    40    20    47    1
    41    21    22    1
    42    21    48    1
    43    21    49    1
    44    22    50    1
    45    22    51    1
    46    22    52    1
    47    23    24   ar
    48    23    53    1
    49    24    54    1
    50    25    30   ar
    51    25    26   ar
    52    26    27   ar
    53    26    55    1
    54    27    28   ar
    55    27    56    1
    56    28    29   ar
    57    28    57    1
    58    29    30   ar
    59    29    58    1
    60    30    59    1
@<TRIPOS>SUBSTRUCTURE
     1 ZINC000487792031        1 TEMP              0 ****  ****    0 ROOT


##########                                Name:    ZINC000052999724
##########                DOCK_Rotatable_Bonds:                   6
##########                         Heavy_Atoms:                  25
##########                    Molecular_Weight:             398.571
##########                DOCK_Rotatable_Bonds:                   6
##########                       Formal_Charge:           0.0399994
##########                     HBond_Acceptors:                   8
##########                        HBond_Donors:                   1
##########                         Heavy_Atoms:                  25
##########                          Grid_Score:          -36.242435
##########                     Grid_vdw_energy:          -37.236149
##########                      Grid_es_energy:            0.993712
##########           Internal_energy_repulsive:           10.679842

@<TRIPOS>MOLECULE
ZINC000052999724
 47 49 1 0 0
SMALL
USER_CHARGES


@<TRIPOS>ATOM
      1 C1        -14.5497   -3.1469   57.4338 C.3     1  ZINC000052999724   -0.1400
      2 C2        -13.5039   -4.2507   57.2645 C.3     1  ZINC000052999724   -0.0400
      3 C3        -14.2077   -5.5856   57.0123 C.3     1  ZINC000052999724   -0.1400
      4 C4        -12.6131   -3.9235   56.0939 C.2     1  ZINC000052999724   -0.0400
      5 C5        -11.2487   -3.9728   56.1512 C.2     1  ZINC000052999724   -0.2600
      6 C6        -10.4600   -4.3427   57.3301 C.2     1  ZINC000052999724    0.6000
      7 O7        -10.2521   -5.5156   57.5796 O.2     1  ZINC000052999724   -0.5200
      8 N8         -9.9652   -3.3839   58.1378 N.am    1  ZINC000052999724   -0.6000
      9 C9        -10.2129   -1.9640   57.8532 C.3     1  ZINC000052999724    0.1100
     10 C10       -10.8158   -1.3090   59.0999 C.3     1  ZINC000052999724   -0.1400
     11 C11        -9.8965   -1.5590   60.2977 C.3     1  ZINC000052999724    0.1500
     12 N12       -10.4534   -0.9058   61.4849 N.am    1  ZINC000052999724   -1.1100
     13 S13        -9.5580    0.2177   62.3085 S.o2    1  ZINC000052999724    2.7200
     14 O14        -8.4587   -0.4822   62.8749 O.2     1  ZINC000052999724   -0.9500
     15 O15        -9.4055    1.3281   61.4349 O.2     1  ZINC000052999724   -0.9400
     16 C16       -10.5401    0.7788   63.6596 C.2     1  ZINC000052999724   -0.8000
     17 C17       -10.0648    1.2074   64.8299 C.2     1  ZINC000052999724    0.0100
     18 C18       -11.0288    1.5999   65.7424 C.2     1  ZINC000052999724   -0.1600
     19 C19       -12.2870    1.4901   65.3131 C.2     1  ZINC000052999724   -0.1700
     20 S20       -12.2967    0.8666   63.6685 S.3     1  ZINC000052999724    0.2100
     21 C21        -9.7824   -3.0641   60.5500 C.3     1  ZINC000052999724   -0.1500
     22 C22        -9.1729   -3.7391   59.3231 C.3     1  ZINC000052999724    0.1100
     23 S23       -10.5908   -3.5220   54.5842 S.3     1  ZINC000052999724    0.2100
     24 C24       -12.1545   -3.2938   53.9411 C.2     1  ZINC000052999724   -0.2400
     25 C25       -13.0922   -3.5513   54.8603 C.2     1  ZINC000052999724   -0.1300
     26 H26       -14.0484   -2.1959   57.6135 H       1  ZINC000052999724    0.0600
     27 H27       -15.1518   -3.0748   56.5281 H       1  ZINC000052999724    0.0600
     28 H28       -15.1941   -3.3836   58.2805 H       1  ZINC000052999724    0.0600
     29 H29       -12.9019   -4.3229   58.1703 H       1  ZINC000052999724    0.0800
     30 H30       -14.8098   -5.5135   56.1065 H       1  ZINC000052999724    0.0600
     31 H31       -13.4627   -6.3721   56.8917 H       1  ZINC000052999724    0.0600
     32 H32       -14.8521   -5.8224   57.8590 H       1  ZINC000052999724    0.0600
     33 H33        -9.2733   -1.4727   57.6005 H       1  ZINC000052999724    0.0800
     34 H34       -10.9101   -1.8745   57.0200 H       1  ZINC000052999724    0.0900
     35 H35       -10.9153   -0.2362   58.9353 H       1  ZINC000052999724    0.0900
     36 H36       -11.7972   -1.7396   59.2985 H       1  ZINC000052999724    0.0800
     37 H37        -8.9080   -1.1501   60.0883 H       1  ZINC000052999724    0.0900
     38 H38       -11.3466   -1.1314   61.7885 H       1  ZINC000052999724    0.4200
     39 H39        -9.0080    1.2450   65.0490 H       1  ZINC000052999724    0.1600
     40 H40       -10.7811    1.9669   66.7274 H       1  ZINC000052999724    0.1500
     41 H41       -13.1652    1.7481   65.8864 H       1  ZINC000052999724    0.1800
     42 H42        -9.1463   -3.2403   61.4174 H       1  ZINC000052999724    0.1000
     43 H43       -10.7736   -3.4781   60.7350 H       1  ZINC000052999724    0.0800
     44 H44        -9.1812   -4.8206   59.4592 H       1  ZINC000052999724    0.1000
     45 H45        -8.1481   -3.3936   59.1874 H       1  ZINC000052999724    0.0800
     46 H46       -12.3601   -2.9863   52.9264 H       1  ZINC000052999724    0.1700
     47 H47       -14.1482   -3.4649   54.6507 H       1  ZINC000052999724    0.1400
@<TRIPOS>BOND
     1     1     2    1
     2     1    26    1
     3     1    27    1
     4     1    28    1
     5     2     3    1
     6     2     4    1
     7     2    29    1
     8     3    30    1
     9     3    31    1
    10     3    32    1
    11     4    25    1
    12     4     5    2
    13     5     6    1
    14     5    23    1
    15     6     7    2
    16     6     8   am
    17     8    22    1
    18     8     9    1
    19     9    10    1
    20     9    33    1
    21     9    34    1
    22    10    11    1
    23    10    35    1
    24    10    36    1
    25    11    12    1
    26    11    21    1
    27    11    37    1
    28    12    13   am
    29    12    38    1
    30    13    14    2
    31    13    15    2
    32    13    16    1
    33    16    20    1
    34    16    17    2
    35    17    18    1
    36    17    39    1
    37    18    19    2
    38    18    40    1
    39    19    20    1
    40    19    41    1
    41    21    22    1
    42    21    42    1
    43    21    43    1
    44    22    44    1
    45    22    45    1
    46    23    24    1
    47    24    25    2
    48    24    46    1
    49    25    47    1
@<TRIPOS>SUBSTRUCTURE
     1 ZINC000052999724        1 TEMP              0 ****  ****    0 ROOT


##########                                Name:    ZINC001061022329
##########                DOCK_Rotatable_Bonds:                   7
##########                         Heavy_Atoms:                  27
##########                    Molecular_Weight:             374.523
##########                DOCK_Rotatable_Bonds:                   7
##########                       Formal_Charge:           0.0800005
##########                     HBond_Acceptors:                   5
##########                        HBond_Donors:                   0
##########                         Heavy_Atoms:                  27
##########                          Grid_Score:          -36.222015
##########                     Grid_vdw_energy:          -34.109104
##########                      Grid_es_energy:           -2.112913
##########           Internal_energy_repulsive:           20.858896

@<TRIPOS>MOLECULE
ZINC001061022329
 61 64 1 0 0
SMALL
USER_CHARGES


@<TRIPOS>ATOM
      1 C1        -10.6871    3.1321   66.3952 C.3     1  ZINC001061022329   -0.1500
      2 C2         -9.7649    1.9872   66.8198 C.3     1  ZINC001061022329   -0.1200
      3 C3         -9.1372    1.3508   65.5781 C.3     1  ZINC001061022329    0.0800
      4 H4         -8.5599    2.1010   65.0377 H       1  ZINC001061022329    0.0600
      5 C5         -8.2151    0.2061   66.0026 C.3     1  ZINC001061022329   -0.1800
      6 O6        -10.1689    0.8420   64.7303 O.3     1  ZINC001061022329   -0.3500
      7 C7         -9.6880    0.2367   63.5285 C.3     1  ZINC001061022329    0.0500
      8 C8        -10.8565   -0.2208   62.6940 C.2     1  ZINC001061022329    0.5200
      9 O9        -11.9895    0.0202   63.0533 O.2     1  ZINC001061022329   -0.5100
     10 N10       -10.6424   -0.8977   61.5485 N.am    1  ZINC001061022329   -0.6100
     11 C11        -9.2748   -1.2020   61.1075 C.3     1  ZINC001061022329    0.1100
     12 C12        -9.0792   -0.6501   59.6904 C.3     1  ZINC001061022329   -0.1200
     13 C13       -10.2041   -1.1629   58.7946 C.3     1  ZINC001061022329   -0.0900
     14 C14        -9.9924   -0.8569   57.3055 C.3     1  ZINC001061022329    0.1200
     15 N15       -10.4699   -2.2328   57.0615 N.am    1  ZINC001061022329   -0.6400
     16 C16       -11.0453   -2.8609   56.0171 C.2     1  ZINC001061022329    0.5400
     17 O17       -11.3415   -4.0338   56.1029 O.2     1  ZINC001061022329   -0.5300
     18 C18       -11.3208   -2.1055   54.7424 C.3     1  ZINC001061022329   -0.0900
     19 H19       -10.5362   -1.3662   54.5817 H       1  ZINC001061022329    0.1000
     20 C20       -12.6735   -1.3981   54.8512 C.3     1  ZINC001061022329   -0.1000
     21 C21       -13.6079   -1.9040   53.7448 C.3     1  ZINC001061022329   -0.0600
     22 H22       -14.5949   -1.4506   53.8354 H       1  ZINC001061022329    0.0800
     23 C23       -13.6966   -3.4182   53.8657 C.2     1  ZINC001061022329   -0.1800
     24 C24       -12.5202   -4.0334   53.7711 C.2     1  ZINC001061022329   -0.1300
     25 C25       -11.3483   -3.0862   53.5631 C.3     1  ZINC001061022329   -0.0400
     26 H26       -10.4125   -3.6398   53.4865 H       1  ZINC001061022329    0.0900
     27 C27       -11.6155   -2.2889   52.2789 C.3     1  ZINC001061022329   -0.1100
     28 C28       -12.9759   -1.5657   52.3876 C.3     1  ZINC001061022329   -0.1100
     29 C29       -10.0634   -2.6448   58.4199 C.3     1  ZINC001061022329    0.1100
     30 C30       -11.5946   -0.7912   59.3036 C.3     1  ZINC001061022329   -0.1100
     31 C31       -11.7736   -1.3469   60.7263 C.3     1  ZINC001061022329    0.1100
     32 H32       -10.1097    3.8823   65.8549 H       1  ZINC001061022329    0.0500
     33 H33       -11.4740    2.7440   65.7486 H       1  ZINC001061022329    0.0600
     34 H34       -11.1343    3.5855   67.2798 H       1  ZINC001061022329    0.0600
     35 H35        -8.9780    2.3754   67.4664 H       1  ZINC001061022329    0.0800
     36 H36       -10.3423    1.2370   67.3602 H       1  ZINC001061022329    0.0700
     37 H37        -7.7679   -0.2474   65.1181 H       1  ZINC001061022329    0.0600
     38 H38        -7.4282    0.5942   66.6492 H       1  ZINC001061022329    0.0700
     39 H39        -8.7924   -0.5442   66.5430 H       1  ZINC001061022329    0.0700
     40 H40        -9.1016    0.9628   62.9655 H       1  ZINC001061022329    0.0800
     41 H41        -9.0624   -0.6202   63.7785 H       1  ZINC001061022329    0.0800
     42 H42        -8.5600   -0.7334   61.7841 H       1  ZINC001061022329    0.0900
     43 H43        -9.1237   -2.2815   61.1035 H       1  ZINC001061022329    0.0800
     44 H44        -9.1024    0.4393   59.7171 H       1  ZINC001061022329    0.0800
     45 H45        -8.1191   -0.9857   59.2980 H       1  ZINC001061022329    0.0800
     46 H46       -10.6567   -0.0854   56.9163 H       1  ZINC001061022329    0.0800
     47 H47        -8.9488   -0.6989   57.0331 H       1  ZINC001061022329    0.0900
     48 H48       -13.1161   -1.6087   55.8248 H       1  ZINC001061022329    0.0700
     49 H49       -12.5307   -0.3230   54.7424 H       1  ZINC001061022329    0.0700
     50 H50       -14.6276   -3.9448   54.0145 H       1  ZINC001061022329    0.1200
     51 H51       -12.4080   -5.1056   53.8364 H       1  ZINC001061022329    0.1200
     52 H52       -10.8283   -1.5477   52.1412 H       1  ZINC001061022329    0.0700
     53 H53       -11.6282   -2.9676   51.4261 H       1  ZINC001061022329    0.0700
     54 H54       -13.6332   -1.9066   51.5877 H       1  ZINC001061022329    0.0700
     55 H55       -12.8235   -0.4902   52.2986 H       1  ZINC001061022329    0.0700
     56 H56        -9.0409   -3.0181   58.4787 H       1  ZINC001061022329    0.0900
     57 H57       -10.7842   -3.2944   58.9166 H       1  ZINC001061022329    0.0800
     58 H58       -11.6996    0.2936   59.3177 H       1  ZINC001061022329    0.0800
     59 H59       -12.3503   -1.2229   58.6473 H       1  ZINC001061022329    0.0800
     60 H60       -11.7980   -2.4361   60.6927 H       1  ZINC001061022329    0.0700
     61 H61       -12.7046   -0.9713   61.1509 H       1  ZINC001061022329    0.1000
@<TRIPOS>BOND
     1     1     2    1
     2     1    32    1
     3     1    33    1
     4     1    34    1
     5     2     3    1
     6     2    35    1
     7     2    36    1
     8     3     4    1
     9     3     5    1
    10     3     6    1
    11     5    37    1
    12     5    38    1
    13     5    39    1
    14     6     7    1
    15     7     8    1
    16     7    40    1
    17     7    41    1
    18     8     9    2
    19     8    10   am
    20    10    31    1
    21    10    11    1
    22    11    12    1
    23    11    42    1
    24    11    43    1
    25    12    13    1
    26    12    44    1
    27    12    45    1
    28    13    29    1
    29    13    14    1
    30    13    30    1
    31    14    15    1
    32    14    46    1
    33    14    47    1
    34    15    16   am
    35    15    29    1
    36    16    17    2
    37    16    18    1
    38    18    19    1
    39    18    25    1
    40    18    20    1
    41    20    21    1
    42    20    48    1
    43    20    49    1
    44    21    22    1
    45    21    28    1
    46    21    23    1
    47    23    24    2
    48    23    50    1
    49    24    25    1
    50    24    51    1
    51    25    26    1
    52    25    27    1
    53    27    28    1
    54    27    52    1
    55    27    53    1
    56    28    54    1
    57    28    55    1
    58    29    56    1
    59    29    57    1
    60    30    31    1
    61    30    58    1
    62    30    59    1
    63    31    60    1
    64    31    61    1
@<TRIPOS>SUBSTRUCTURE
     1 ZINC001061022329        1 TEMP              0 ****  ****    0 ROOT


##########                                Name:    ZINC001070580102
##########                DOCK_Rotatable_Bonds:                   8
##########                         Heavy_Atoms:                  25
##########                    Molecular_Weight:              349.39
##########                DOCK_Rotatable_Bonds:                   8
##########                       Formal_Charge:          -0.0100003
##########                     HBond_Acceptors:                   9
##########                        HBond_Donors:                   3
##########                         Heavy_Atoms:                  25
##########                          Grid_Score:          -36.213158
##########                     Grid_vdw_energy:          -36.954060
##########                      Grid_es_energy:            0.740902
##########           Internal_energy_repulsive:           14.506824

@<TRIPOS>MOLECULE
ZINC001070580102
 48 50 1 0 0
SMALL
USER_CHARGES


@<TRIPOS>ATOM
      1 C1        -13.3404    1.8684   63.3053 C.3     1  ZINC001070580102   -0.0800
      2 C2        -12.0418    1.1042   63.2815 C.2     1  ZINC001070580102   -0.0100
      3 C3        -11.6185    0.3205   62.2779 C.2     1  ZINC001070580102   -0.1900
      4 C4        -10.3128   -0.2071   62.7003 C.2     1  ZINC001070580102   -0.2500
      5 C5         -9.4342   -1.1189   61.9462 C.2     1  ZINC001070580102    0.6000
      6 O6         -8.3892   -1.5007   62.4372 O.2     1  ZINC001070580102   -0.5300
      7 N7         -9.7889   -1.5296   60.7126 N.am    1  ZINC001070580102   -0.7200
      8 C8         -8.9147   -2.4345   59.9623 C.3     1  ZINC001070580102    0.2000
      9 C9         -9.7469   -3.2853   59.0377 C.2     1  ZINC001070580102    0.2600
     10 N10       -10.8794   -2.9361   58.4835 N.2     1  ZINC001070580102   -0.5100
     11 C11       -11.3386   -3.9323   57.7271 C.2     1  ZINC001070580102    0.2300
     12 C12       -12.6161   -3.9081   56.9283 C.3     1  ZINC001070580102    0.1400
     13 H13       -13.2370   -3.0757   57.2598 H       1  ZINC001070580102    0.0800
     14 C14       -13.3724   -5.2233   57.1335 C.3     1  ZINC001070580102    0.0800
     15 O15       -14.5454   -5.2256   56.3155 O.3     1  ZINC001070580102   -0.3800
     16 C16       -14.2744   -5.0723   54.9196 C.3     1  ZINC001070580102    0.0600
     17 C17       -13.5273   -3.7555   54.6920 C.3     1  ZINC001070580102    0.0200
     18 N18       -12.3001   -3.7470   55.5016 N.3     1  ZINC001070580102   -0.5200
     19 C19       -11.5239   -2.5218   55.2682 C.3     1  ZINC001070580102    0.0600
     20 C20       -11.0466   -2.4897   53.8149 C.3     1  ZINC001070580102    0.0800
     21 O21       -10.5069   -3.7651   53.4625 O.3     1  ZINC001070580102   -0.5700
     22 N22       -10.5007   -4.9336   57.7897 N.2     1  ZINC001070580102   -0.2700
     23 N23        -9.4520   -4.5331   58.6338 N.pl3   1  ZINC001070580102   -0.4700
     24 C24       -10.0842    0.3244   63.9357 C.2     1  ZINC001070580102    0.0900
     25 C25        -8.8665    0.0797   64.7891 C.3     1  ZINC001070580102   -0.0900
     26 O26       -11.1213    1.1034   64.2583 O.3     1  ZINC001070580102   -0.1700
     27 H27       -13.4189    2.4224   64.2407 H       1  ZINC001070580102    0.0800
     28 H28       -13.3676    2.5648   62.4672 H       1  ZINC001070580102    0.0900
     29 H29       -14.1740    1.1708   63.2251 H       1  ZINC001070580102    0.0900
     30 H30       -12.1321    0.1184   61.3497 H       1  ZINC001070580102    0.1500
     31 H31       -10.6230   -1.2260   60.3214 H       1  ZINC001070580102    0.4000
     32 H32        -8.2035   -1.8510   59.3775 H       1  ZINC001070580102    0.1000
     33 H33        -8.3733   -3.0762   60.6575 H       1  ZINC001070580102    0.1100
     34 H34       -12.7316   -6.0592   56.8530 H       1  ZINC001070580102    0.0700
     35 H35       -13.6588   -5.3189   58.1809 H       1  ZINC001070580102    0.1000
     36 H36       -13.6597   -5.9037   54.5748 H       1  ZINC001070580102    0.0600
     37 H37       -15.2131   -5.0586   54.3659 H       1  ZINC001070580102    0.1000
     38 H38       -13.2682   -3.6616   53.6374 H       1  ZINC001070580102    0.1200
     39 H39       -14.1630   -2.9206   54.9871 H       1  ZINC001070580102    0.0400
     40 H40       -12.1505   -1.6518   55.4641 H       1  ZINC001070580102    0.0500
     41 H41       -10.6613   -2.5058   55.9343 H       1  ZINC001070580102    0.0800
     42 H42       -11.8876   -2.2579   53.1613 H       1  ZINC001070580102    0.0500
     43 H43       -10.2774   -1.7258   53.7019 H       1  ZINC001070580102    0.0600
     44 H44       -11.1519   -4.4853   53.4863 H       1  ZINC001070580102    0.3800
     45 H45        -8.6730   -5.0555   58.8811 H       1  ZINC001070580102    0.4400
     46 H46        -8.1070    0.8277   64.5615 H       1  ZINC001070580102    0.0900
     47 H47        -9.1407    0.1489   65.8418 H       1  ZINC001070580102    0.0800
     48 H48        -8.4711   -0.9146   64.5813 H       1  ZINC001070580102    0.1100
@<TRIPOS>BOND
     1     1     2    1
     2     1    27    1
     3     1    28    1
     4     1    29    1
     5     2    26    1
     6     2     3    2
     7     3     4    1
     8     3    30    1
     9     4     5    1
    10     4    24    2
    11     5     6    2
    12     5     7   am
    13     7     8    1
    14     7    31    1
    15     8     9    1
    16     8    32    1
    17     8    33    1
    18     9    23    1
    19     9    10    2
    20    10    11    1
    21    11    12    1
    22    11    22    2
    23    12    13    1
    24    12    18    1
    25    12    14    1
    26    14    15    1
    27    14    34    1
    28    14    35    1
    29    15    16    1
    30    16    17    1
    31    16    36    1
    32    16    37    1
    33    17    18    1
    34    17    38    1
    35    17    39    1
    36    18    19    1
    37    19    20    1
    38    19    40    1
    39    19    41    1
    40    20    21    1
    41    20    42    1
    42    20    43    1
    43    21    44    1
    44    22    23    1
    45    23    45    1
    46    24    25    1
    47    24    26    1
    48    25    46    1
    49    25    47    1
    50    25    48    1
@<TRIPOS>SUBSTRUCTURE
     1 ZINC001070580102        1 TEMP              0 ****  ****    0 ROOT


##########                                Name:    ZINC000624498741
##########                DOCK_Rotatable_Bonds:                   7
##########                         Heavy_Atoms:                  27
##########                    Molecular_Weight:             379.339
##########                DOCK_Rotatable_Bonds:                   7
##########                       Formal_Charge:           0.0300003
##########                     HBond_Acceptors:                   9
##########                        HBond_Donors:                   0
##########                         Heavy_Atoms:                  27
##########                          Grid_Score:          -36.189720
##########                     Grid_vdw_energy:          -34.228340
##########                      Grid_es_energy:           -1.961380
##########           Internal_energy_repulsive:            6.947259

@<TRIPOS>MOLECULE
ZINC000624498741
 43 45 1 0 0
SMALL
USER_CHARGES


@<TRIPOS>ATOM
      1 C1        -11.2071   -2.7212   52.3536 C.3     1  ZINC000624498741   -0.1100
      2 C2        -11.8334   -3.1902   53.6416 C.ar    1  ZINC000624498741   -0.0900
      3 C3        -11.0563   -3.3437   54.7684 C.ar    1  ZINC000624498741   -0.0400
      4 C4        -11.6380   -3.7782   55.9620 C.ar    1  ZINC000624498741   -0.0500
      5 C5        -10.8086   -3.9437   57.1724 C.2     1  ZINC000624498741    0.2300
      6 N6        -10.0982   -3.0070   57.7771 N.2     1  ZINC000624498741   -0.4700
      7 C7         -9.5176   -3.6152   58.8231 C.2     1  ZINC000624498741    0.1800
      8 C8         -8.6012   -2.9705   59.8307 C.3     1  ZINC000624498741   -0.0300
      9 C9         -9.4316   -2.3895   60.9768 C.3     1  ZINC000624498741   -0.1300
     10 C10        -9.8749   -0.9700   60.6170 C.3     1  ZINC000624498741    0.0900
     11 N11       -10.6072   -0.3866   61.7438 N.am    1  ZINC000624498741   -0.5000
     12 C12        -9.9345    0.3209   62.6871 C.2     1  ZINC000624498741    0.1300
     13 C13       -10.5891    0.8691   63.7373 C.2     1  ZINC000624498741   -0.2300
     14 C14       -11.9766    0.7085   63.8582 C.2     1  ZINC000624498741   -0.0200
     15 C15       -12.6508   -0.0024   62.9093 C.2     1  ZINC000624498741   -0.2400
     16 C16       -11.9406   -0.5536   61.8291 C.2     1  ZINC000624498741    0.5100
     17 O17       -12.5315   -1.1920   60.9728 O.2     1  ZINC000624498741   -0.5500
     18 N18        -9.8894   -4.8613   58.8102 N.2     1  ZINC000624498741   -0.3700
     19 O19       -10.6337   -5.0731   57.8764 O.3     1  ZINC000624498741    0.0900
     20 C20       -13.0062   -4.0551   56.0074 C.ar    1  ZINC000624498741   -0.0200
     21 C21       -13.7766   -3.8989   54.8759 C.ar    1  ZINC000624498741   -0.1900
     22 C22       -13.1953   -3.4616   53.6923 C.ar    1  ZINC000624498741    0.1300
     23 O23       -13.9580   -3.3091   52.5794 O.3     1  ZINC000624498741   -0.3000
     24 C24       -14.8773   -2.2152   52.5678 C.3     1  ZINC000624498741    0.6000
     25 F25       -16.1100   -2.6364   53.0779 F       1  ZINC000624498741   -0.1600
     26 F26       -14.3758   -1.1761   53.3592 F       1  ZINC000624498741   -0.1300
     27 F27       -15.0462   -1.7618   51.2552 F       1  ZINC000624498741   -0.1600
     28 H28       -11.2407   -1.6326   52.3086 H       1  ZINC000624498741    0.0800
     29 H29       -10.1702   -3.0547   52.3113 H       1  ZINC000624498741    0.0800
     30 H30       -11.7573   -3.1369   51.5095 H       1  ZINC000624498741    0.0800
     31 H31        -9.9986   -3.1290   54.7291 H       1  ZINC000624498741    0.1500
     32 H32        -7.9111   -3.7170   60.2241 H       1  ZINC000624498741    0.1000
     33 H33        -8.0367   -2.1717   59.3497 H       1  ZINC000624498741    0.1000
     34 H34       -10.3100   -3.0136   61.1419 H       1  ZINC000624498741    0.0800
     35 H35        -8.8291   -2.3627   61.8848 H       1  ZINC000624498741    0.0800
     36 H36        -8.9985   -0.3601   60.3984 H       1  ZINC000624498741    0.1100
     37 H37       -10.5225   -1.0028   59.7407 H       1  ZINC000624498741    0.1000
     38 H38        -8.8656    0.4477   62.5988 H       1  ZINC000624498741    0.1600
     39 H39       -10.0430    1.4292   64.4820 H       1  ZINC000624498741    0.1500
     40 H40       -12.5058    1.1427   64.6937 H       1  ZINC000624498741    0.1400
     41 H41       -13.7197   -0.1368   62.9851 H       1  ZINC000624498741    0.1500
     42 H42       -13.4595   -4.3916   56.9281 H       1  ZINC000624498741    0.1500
     43 H43       -14.8347   -4.1132   54.9101 H       1  ZINC000624498741    0.1500
@<TRIPOS>BOND
     1     1     2    1
     2     1    28    1
     3     1    29    1
     4     1    30    1
     5     2    22   ar
     6     2     3   ar
     7     3     4   ar
     8     3    31    1
     9     4     5    1
    10     4    20   ar
    11     5    19    1
    12     5     6    2
    13     6     7    1
    14     7     8    1
    15     7    18    2
    16     8     9    1
    17     8    32    1
    18     8    33    1
    19     9    10    1
    20     9    34    1
    21     9    35    1
    22    10    11    1
    23    10    36    1
    24    10    37    1
    25    11    16   am
    26    11    12    1
    27    12    13    2
    28    12    38    1
    29    13    14    1
    30    13    39    1
    31    14    15    2
    32    14    40    1
    33    15    16    1
    34    15    41    1
    35    16    17    2
    36    18    19    1
    37    20    21   ar
    38    20    42    1
    39    21    22   ar
    40    21    43    1
    41    22    23    1
    42    23    24    1
    43    24    25    1
    44    24    26    1
    45    24    27    1
@<TRIPOS>SUBSTRUCTURE
     1 ZINC000624498741        1 TEMP              0 ****  ****    0 ROOT


##########                                Name:    ZINC000561219098
##########                DOCK_Rotatable_Bonds:                   4
##########                         Heavy_Atoms:                  28
##########                    Molecular_Weight:             423.273
##########                DOCK_Rotatable_Bonds:                   4
##########                       Formal_Charge:          0.00999953
##########                     HBond_Acceptors:                   9
##########                        HBond_Donors:                   1
##########                         Heavy_Atoms:                  28
##########                          Grid_Score:          -36.112213
##########                     Grid_vdw_energy:          -36.708515
##########                      Grid_es_energy:            0.596301
##########           Internal_energy_repulsive:           10.085917

@<TRIPOS>MOLECULE
ZINC000561219098
 45 48 1 0 0
SMALL
USER_CHARGES


@<TRIPOS>ATOM
      1 C1         -4.2393    1.1500   50.9258 C.3     1  ZINC000561219098    0.0700
      2 N2         -5.5606    1.3889   51.5116 N.pl3   1  ZINC000561219098   -0.4500
      3 C3         -5.9841    2.5645   52.0587 C.2     1  ZINC000561219098   -0.0100
      4 C4         -7.2486    2.4031   52.4920 C.2     1  ZINC000561219098   -0.1700
      5 C5         -7.6281    1.0685   52.2015 C.2     1  ZINC000561219098   -0.1100
      6 C6         -8.9402    0.4395   52.4993 C.2     1  ZINC000561219098    0.1600
      7 N7         -9.9651    1.0331   53.0751 N.2     1  ZINC000561219098   -0.2700
      8 N8        -11.0153    0.1130   53.1810 N.pl3   1  ZINC000561219098   -0.4700
      9 C9        -10.5923   -1.0719   52.6457 C.2     1  ZINC000561219098    0.0300
     10 C10       -11.3752   -2.3146   52.5483 C.2     1  ZINC000561219098    0.5900
     11 O11       -11.9274   -2.6052   51.5043 O.2     1  ZINC000561219098   -0.5000
     12 N12       -11.4801   -3.1303   53.6159 N.am    1  ZINC000561219098   -0.6100
     13 C13       -12.2572   -4.3777   53.5428 C.3     1  ZINC000561219098    0.0500
     14 C14       -13.2221   -4.4168   54.7333 C.3     1  ZINC000561219098    0.0500
     15 O15       -12.4893   -4.1953   55.9407 O.3     1  ZINC000561219098   -0.3700
     16 C16       -11.8556   -2.9159   56.0142 C.3     1  ZINC000561219098    0.1200
     17 H17       -12.6043   -2.1317   55.9023 H       1  ZINC000561219098    0.0900
     18 C18       -11.1693   -2.7701   57.3479 C.ar    1  ZINC000561219098   -0.0500
     19 C19       -10.4149   -3.8114   57.8540 C.ar    1  ZINC000561219098   -0.1000
     20 C20        -9.7840   -3.6776   59.0790 C.ar    1  ZINC000561219098    0.1200
     21 F21        -9.0460   -4.6953   59.5738 F       1  ZINC000561219098   -0.1200
     22 C22        -9.9095   -2.4994   59.7969 C.ar    1  ZINC000561219098   -0.0600
     23 Cl23       -9.1184   -2.3300   61.3330 Cl      1  ZINC000561219098   -0.0300
     24 C24       -10.6649   -1.4581   59.2892 C.ar    1  ZINC000561219098   -0.0700
     25 C25       -11.2904   -1.5913   58.0627 C.ar    1  ZINC000561219098   -0.0300
     26 Cl26      -12.2380   -0.2838   57.4254 Cl      1  ZINC000561219098   -0.0400
     27 C27       -10.8160   -2.8028   54.8876 C.3     1  ZINC000561219098    0.0900
     28 C28        -9.2986   -0.8848   52.2091 C.2     1  ZINC000561219098   -0.1700
     29 C29        -6.5672    0.4745   51.5930 C.2     1  ZINC000561219098    0.0300
     30 H30        -4.2628    1.3959   49.8641 H       1  ZINC000561219098    0.0800
     31 H31        -3.5010    1.7756   51.4274 H       1  ZINC000561219098    0.0900
     32 H32        -3.9710    0.1009   51.0499 H       1  ZINC000561219098    0.0900
     33 H33        -5.4029    3.4717   52.1320 H       1  ZINC000561219098    0.1700
     34 H34        -7.8607    3.1523   52.9722 H       1  ZINC000561219098    0.1400
     35 H35       -11.8885    0.2855   53.5667 H       1  ZINC000561219098    0.4400
     36 H36       -12.8223   -4.4041   52.6111 H       1  ZINC000561219098    0.1000
     37 H37       -11.5832   -5.2332   53.5883 H       1  ZINC000561219098    0.0900
     38 H38       -13.9759   -3.6381   54.6167 H       1  ZINC000561219098    0.0700
     39 H39       -13.7082   -5.3915   54.7761 H       1  ZINC000561219098    0.1200
     40 H40       -10.3178   -4.7298   57.2939 H       1  ZINC000561219098    0.1600
     41 H41       -10.7634   -0.5395   59.8486 H       1  ZINC000561219098    0.1600
     42 H42        -9.9983   -3.4997   55.0712 H       1  ZINC000561219098    0.0900
     43 H43       -10.4288   -1.7846   54.8463 H       1  ZINC000561219098    0.1100
     44 H44        -8.6719   -1.6261   51.7355 H       1  ZINC000561219098    0.1600
     45 H45        -6.5270   -0.5461   51.2421 H       1  ZINC000561219098    0.1700
@<TRIPOS>BOND
     1     1     2    1
     2     1    30    1
     3     1    31    1
     4     1    32    1
     5     2    29    1
     6     2     3    1
     7     3     4    2
     8     3    33    1
     9     4     5    1
    10     4    34    1
    11     5     6    1
    12     5    29    2
    13     6    28    1
    14     6     7    2
    15     7     8    1
    16     8     9    1
    17     8    35    1
    18     9    10    1
    19     9    28    2
    20    10    11    2
    21    10    12   am
    22    12    27    1
    23    12    13    1
    24    13    14    1
    25    13    36    1
    26    13    37    1
    27    14    15    1
    28    14    38    1
    29    14    39    1
    30    15    16    1
    31    16    17    1
    32    16    18    1
    33    16    27    1
    34    18    25   ar
    35    18    19   ar
    36    19    20   ar
    37    19    40    1
    38    20    21    1
    39    20    22   ar
    40    22    23    1
    41    22    24   ar
    42    24    25   ar
    43    24    41    1
    44    25    26    1
    45    27    42    1
    46    27    43    1
    47    28    44    1
    48    29    45    1
@<TRIPOS>SUBSTRUCTURE
     1 ZINC000561219098        1 TEMP              0 ****  ****    0 ROOT


##########                                Name:    ZINC001326371752
##########                DOCK_Rotatable_Bonds:                   5
##########                         Heavy_Atoms:                  25
##########                    Molecular_Weight:             360.397
##########                DOCK_Rotatable_Bonds:                   5
##########                       Formal_Charge:           0.0199999
##########                     HBond_Acceptors:                  10
##########                        HBond_Donors:                   0
##########                         Heavy_Atoms:                  25
##########                          Grid_Score:          -36.111435
##########                     Grid_vdw_energy:          -34.399681
##########                      Grid_es_energy:           -1.711755
##########           Internal_energy_repulsive:            8.913534

@<TRIPOS>MOLECULE
ZINC001326371752
 41 44 1 0 0
SMALL
USER_CHARGES


@<TRIPOS>ATOM
      1 C1        -14.4031   -0.4070   47.2882 C.3     1  ZINC001326371752    0.0300
      2 O2        -14.6913   -0.3796   48.6876 O.3     1  ZINC001326371752   -0.3800
      3 C3        -13.8979   -1.2810   49.4622 C.3     1  ZINC001326371752    0.0500
      4 C4        -14.2908   -1.1683   50.9366 C.3     1  ZINC001326371752    0.1200
      5 N5        -13.4149   -2.0228   51.7420 N.pl3   1  ZINC001326371752   -0.2800
      6 N6        -12.1856   -2.3137   51.4763 N.2     1  ZINC001326371752   -0.0800
      7 N7        -11.7034   -3.0908   52.3865 N.2     1  ZINC001326371752   -0.2500
      8 C8        -12.6495   -3.3238   53.2889 C.2     1  ZINC001326371752   -0.0400
      9 C9        -13.7491   -2.6372   52.8909 C.2     1  ZINC001326371752    0.0000
     10 C10       -15.0583   -2.6120   53.6327 C.3     1  ZINC001326371752   -0.0600
     11 C11       -15.0945   -3.7943   54.6102 C.3     1  ZINC001326371752    0.1200
     12 N12       -13.8079   -3.8777   55.3170 N.am    1  ZINC001326371752   -0.6100
     13 C13       -13.7395   -3.6891   56.6497 C.2     1  ZINC001326371752    0.6100
     14 O14       -14.7503   -3.4464   57.2825 O.2     1  ZINC001326371752   -0.5100
     15 C15       -12.4463   -3.7762   57.3378 C.2     1  ZINC001326371752   -0.3400
     16 C16       -11.7766   -5.0006   57.4442 C.2     1  ZINC001326371752    0.2400
     17 N17       -10.6156   -5.0418   58.0698 N.2     1  ZINC001326371752   -0.5100
     18 C18       -10.0660   -3.9572   58.6000 C.2     1  ZINC001326371752    0.2900
     19 S19        -8.5832   -3.7551   59.4528 S.3     1  ZINC001326371752    0.2500
     20 C20        -8.7931   -2.0154   59.7069 C.2     1  ZINC001326371752   -0.2100
     21 C21        -9.9487   -1.7139   59.1394 C.2     1  ZINC001326371752    0.0500
     22 N22       -10.6505   -2.7320   58.5402 N.am    1  ZINC001326371752   -0.4600
     23 C23       -11.8517   -2.6253   57.8997 C.2     1  ZINC001326371752    0.5500
     24 O24       -12.4092   -1.5446   57.8174 O.2     1  ZINC001326371752   -0.5000
     25 C25       -12.5924   -4.1692   54.5359 C.3     1  ZINC001326371752    0.2000
     26 H26       -15.0467    0.3043   46.7707 H       1  ZINC001326371752    0.0900
     27 H27       -13.3594   -0.1369   47.1269 H       1  ZINC001326371752    0.0500
     28 H28       -14.5831   -1.4093   46.8997 H       1  ZINC001326371752    0.0500
     29 H29       -14.0668   -2.3014   49.1182 H       1  ZINC001326371752    0.0600
     30 H30       -12.8438   -1.0284   49.3468 H       1  ZINC001326371752    0.0600
     31 H31       -14.1877   -0.1331   51.2620 H       1  ZINC001326371752    0.1200
     32 H32       -15.3254   -1.4874   51.0623 H       1  ZINC001326371752    0.1200
     33 H33       -15.1468   -1.6772   54.1864 H       1  ZINC001326371752    0.0900
     34 H34       -15.8817   -2.6986   52.9238 H       1  ZINC001326371752    0.1000
     35 H35       -15.8975   -3.6455   55.3321 H       1  ZINC001326371752    0.1100
     36 H36       -15.2670   -4.7181   54.0579 H       1  ZINC001326371752    0.0800
     37 H37       -12.2038   -5.8978   57.0211 H       1  ZINC001326371752    0.1900
     38 H38        -8.1199   -1.3429   60.2178 H       1  ZINC001326371752    0.2200
     39 H39       -10.3278   -0.7028   59.1466 H       1  ZINC001326371752    0.2000
     40 H40       -12.5711   -5.2241   54.2623 H       1  ZINC001326371752    0.1000
     41 H41       -11.7068   -3.9181   55.1197 H       1  ZINC001326371752    0.1000
@<TRIPOS>BOND
     1     1     2    1
     2     1    26    1
     3     1    27    1
     4     1    28    1
     5     2     3    1
     6     3     4    1
     7     3    29    1
     8     3    30    1
     9     4     5    1
    10     4    31    1
    11     4    32    1
    12     5     9    1
    13     5     6    1
    14     6     7    2
    15     7     8    1
    16     8    25    1
    17     8     9    2
    18     9    10    1
    19    10    11    1
    20    10    33    1
    21    10    34    1
    22    11    12    1
    23    11    35    1
    24    11    36    1
    25    12    13   am
    26    12    25    1
    27    13    14    2
    28    13    15    1
    29    15    23    1
    30    15    16    2
    31    16    17    1
    32    16    37    1
    33    17    18    2
    34    18    22    1
    35    18    19    1
    36    19    20    1
    37    20    21    2
    38    20    38    1
    39    21    22    1
    40    21    39    1
    41    22    23   am
    42    23    24    2
    43    25    40    1
    44    25    41    1
@<TRIPOS>SUBSTRUCTURE
     1 ZINC001326371752        1 TEMP              0 ****  ****    0 ROOT


##########                                Name:    ZINC000027473870
##########                DOCK_Rotatable_Bonds:                  10
##########                         Heavy_Atoms:                  31
##########                    Molecular_Weight:             422.502
##########                DOCK_Rotatable_Bonds:                  10
##########                       Formal_Charge:        -7.45058e-08
##########                     HBond_Acceptors:                   7
##########                        HBond_Donors:                   1
##########                         Heavy_Atoms:                  31
##########                          Grid_Score:          -36.096210
##########                     Grid_vdw_energy:          -34.094135
##########                      Grid_es_energy:           -2.002076
##########           Internal_energy_repulsive:           22.778975

@<TRIPOS>MOLECULE
ZINC000027473870
 58 60 1 0 0
SMALL
USER_CHARGES


@<TRIPOS>ATOM
      1 C1        -11.0637    1.6881   52.2382 C.3     1  ZINC000027473870   -0.1400
      2 C2         -9.7687    1.4809   53.0261 C.3     1  ZINC000027473870   -0.0800
      3 C3         -9.0316    0.2871   52.4762 C.2     1  ZINC000027473870    0.1700
      4 C4         -7.8232    0.3088   51.8084 C.2     1  ZINC000027473870   -0.2900
      5 C5         -7.0145    1.5023   51.5012 C.2     1  ZINC000027473870    0.6000
      6 O6         -7.3703    2.2693   50.6271 O.2     1  ZINC000027473870   -0.5400
      7 N7         -5.8809    1.7436   52.1888 N.am    1  ZINC000027473870   -0.7200
      8 C8         -5.0781    2.9308   51.8846 C.3     1  ZINC000027473870    0.1600
      9 C9         -3.9849    2.5629   50.9148 C.ar    1  ZINC000027473870   -0.0900
     10 C10        -2.6709    2.5117   51.3451 C.ar    1  ZINC000027473870   -0.1100
     11 C11        -1.6653    2.1760   50.4623 C.ar    1  ZINC000027473870   -0.1100
     12 C12        -1.9760    1.8874   49.1325 C.ar    1  ZINC000027473870   -0.1200
     13 C13        -0.9035    1.5265   48.1809 C.2     1  ZINC000027473870    0.5600
     14 O14        -0.3256    0.4630   48.2914 O.2     1  ZINC000027473870   -0.5300
     15 N15        -0.5667    2.3768   47.1909 N.am    1  ZINC000027473870   -0.6100
     16 C16         0.4959    2.0193   46.2481 C.3     1  ZINC000027473870    0.1100
     17 C17        -0.1091    1.2752   45.0560 C.3     1  ZINC000027473870   -0.1700
     18 C18        -1.2634    3.6587   47.0578 C.3     1  ZINC000027473870    0.0900
     19 C19        -0.3151    4.6938   46.4494 C.3     1  ZINC000027473870   -0.1800
     20 C20        -3.3037    1.9404   48.7050 C.ar    1  ZINC000027473870   -0.0700
     21 C21        -4.3003    2.2724   49.5993 C.ar    1  ZINC000027473870   -0.1000
     22 C22        -7.5066   -1.0276   51.4749 C.2     1  ZINC000027473870    0.0900
     23 N23        -8.4663   -1.7932   51.9170 N.2     1  ZINC000027473870   -0.2800
     24 N24        -9.4267   -0.9966   52.5505 N.pl3   1  ZINC000027473870   -0.3100
     25 C25       -10.6061   -1.4576   53.1525 C.ar    1  ZINC000027473870    0.1300
     26 C26       -11.5146   -2.2071   52.4174 C.ar    1  ZINC000027473870   -0.0900
     27 C27       -12.6756   -2.6607   53.0122 C.ar    1  ZINC000027473870   -0.1300
     28 C28       -12.9338   -2.3683   54.3409 C.ar    1  ZINC000027473870    0.1100
     29 F29       -14.0698   -2.8131   54.9212 F       1  ZINC000027473870   -0.1300
     30 C30       -12.0287   -1.6207   55.0758 C.ar    1  ZINC000027473870   -0.1400
     31 C31       -10.8643   -1.1698   54.4859 C.ar    1  ZINC000027473870   -0.0700
     32 H32       -11.6390    2.4959   52.6904 H       1  ZINC000027473870    0.0700
     33 H33       -10.8241    1.9461   51.2066 H       1  ZINC000027473870    0.0700
     34 H34       -11.6507    0.7698   52.2560 H       1  ZINC000027473870    0.0500
     35 H35        -9.1422    2.3683   52.9353 H       1  ZINC000027473870    0.1200
     36 H36       -10.0058    1.3096   54.0762 H       1  ZINC000027473870    0.0800
     37 H37        -5.5963    1.1312   52.8852 H       1  ZINC000027473870    0.4000
     38 H38        -5.7149    3.6961   51.4411 H       1  ZINC000027473870    0.0800
     39 H39        -4.6347    3.3147   52.8033 H       1  ZINC000027473870    0.0800
     40 H40        -2.4319    2.7353   52.3743 H       1  ZINC000027473870    0.1300
     41 H41        -0.6400    2.1371   50.7992 H       1  ZINC000027473870    0.1500
     42 H42         0.9908    2.9251   45.8978 H       1  ZINC000027473870    0.0800
     43 H43         1.2228    1.3776   46.7461 H       1  ZINC000027473870    0.0800
     44 H44         0.6815    1.0091   44.3545 H       1  ZINC000027473870    0.0700
     45 H45        -0.6040    0.3693   45.4063 H       1  ZINC000027473870    0.0600
     46 H46        -0.8360    1.9169   44.5580 H       1  ZINC000027473870    0.0600
     47 H47        -2.1307    3.5352   46.4093 H       1  ZINC000027473870    0.0800
     48 H48        -1.5901    3.9986   48.0406 H       1  ZINC000027473870    0.0900
     49 H49        -0.7317    5.6919   46.5844 H       1  ZINC000027473870    0.0700
     50 H50         0.6539    4.6345   46.9451 H       1  ZINC000027473870    0.0700
     51 H51        -0.1917    4.4924   45.3853 H       1  ZINC000027473870    0.0600
     52 H52        -3.5506    1.7186   47.6772 H       1  ZINC000027473870    0.1300
     53 H53        -5.3280    2.3135   49.2700 H       1  ZINC000027473870    0.1300
     54 H54        -6.6246   -1.3574   50.9461 H       1  ZINC000027473870    0.1900
     55 H55       -11.3138   -2.4352   51.3810 H       1  ZINC000027473870    0.1500
     56 H56       -13.3826   -3.2436   52.4405 H       1  ZINC000027473870    0.1500
     57 H57       -12.2321   -1.3933   56.1118 H       1  ZINC000027473870    0.1500
     58 H58       -10.1586   -0.5872   55.0594 H       1  ZINC000027473870    0.1400
@<TRIPOS>BOND
     1     1     2    1
     2     1    32    1
     3     1    33    1
     4     1    34    1
     5     2     3    1
     6     2    35    1
     7     2    36    1
     8     3    24    1
     9     3     4    2
    10     4     5    1
    11     4    22    1
    12     5     6    2
    13     5     7   am
    14     7     8    1
    15     7    37    1
    16     8     9    1
    17     8    38    1
    18     8    39    1
    19     9    21   ar
    20     9    10   ar
    21    10    11   ar
    22    10    40    1
    23    11    12   ar
    24    11    41    1
    25    12    13    1
    26    12    20   ar
    27    13    14    2
    28    13    15   am
    29    15    16    1
    30    15    18    1
    31    16    17    1
    32    16    42    1
    33    16    43    1
    34    17    44    1
    35    17    45    1
    36    17    46    1
    37    18    19    1
    38    18    47    1
    39    18    48    1
    40    19    49    1
    41    19    50    1
    42    19    51    1
    43    20    21   ar
    44    20    52    1
    45    21    53    1
    46    22    23    2
    47    22    54    1
    48    23    24    1
    49    24    25    1
    50    25    31   ar
    51    25    26   ar
    52    26    27   ar
    53    26    55    1
    54    27    28   ar
    55    27    56    1
    56    28    29    1
    57    28    30   ar
    58    30    31   ar
    59    30    57    1
    60    31    58    1
@<TRIPOS>SUBSTRUCTURE
     1 ZINC000027473870        1 TEMP              0 ****  ****    0 ROOT


##########                                Name:    ZINC000762020937
##########                DOCK_Rotatable_Bonds:                  10
##########                         Heavy_Atoms:                  28
##########                    Molecular_Weight:             391.467
##########                DOCK_Rotatable_Bonds:                  10
##########                       Formal_Charge:         -1.8999e-07
##########                     HBond_Acceptors:                   8
##########                        HBond_Donors:                   1
##########                         Heavy_Atoms:                  28
##########                          Grid_Score:          -36.065659
##########                     Grid_vdw_energy:          -35.522396
##########                      Grid_es_energy:           -0.543263
##########           Internal_energy_repulsive:           24.810425

@<TRIPOS>MOLECULE
ZINC000762020937
 57 58 1 0 0
SMALL
USER_CHARGES


@<TRIPOS>ATOM
      1 C1         -9.2513    1.8561   58.1877 C.3     1  ZINC000762020937    0.0200
      2 O2         -9.0413    0.6871   58.9823 O.3     1  ZINC000762020937   -0.3000
      3 C3         -9.4575   -0.4975   58.4600 C.ar    1  ZINC000762020937    0.1100
      4 C4        -10.1593   -0.5213   57.2659 C.ar    1  ZINC000762020937   -0.1700
      5 C5        -10.5814   -1.7268   56.7359 C.ar    1  ZINC000762020937   -0.1000
      6 C6        -10.3050   -2.9096   57.3951 C.ar    1  ZINC000762020937   -0.1000
      7 C7        -10.7677   -4.2205   56.8132 C.3     1  ZINC000762020937    0.0200
      8 C8        -12.2661   -4.3237   56.9363 C.2     1  ZINC000762020937    0.1900
      9 N9        -13.0967   -3.3456   57.2067 N.2     1  ZINC000762020937   -0.4700
     10 C10       -14.3209   -3.9022   57.2151 C.2     1  ZINC000762020937    0.1600
     11 C11       -15.6227   -3.1900   57.4782 C.3     1  ZINC000762020937    0.2600
     12 H12       -16.3491   -3.8969   57.8792 H       1  ZINC000762020937    0.1200
     13 N13       -15.4030   -2.1133   58.4471 N.am    1  ZINC000762020937   -0.7100
     14 C14       -15.5310   -2.3574   59.7664 C.2     1  ZINC000762020937    0.6600
     15 O15       -15.8271   -3.4708   60.1524 O.2     1  ZINC000762020937   -0.5600
     16 O16       -15.3306   -1.3674   60.6567 O.3     1  ZINC000762020937   -0.3600
     17 C17       -13.9531   -1.0269   60.9649 C.3     1  ZINC000762020937    0.1400
     18 C18       -13.8858   -0.3766   62.3482 C.3     1  ZINC000762020937   -0.1800
     19 C19       -13.0997   -2.2967   60.9561 C.3     1  ZINC000762020937   -0.1400
     20 C20       -13.4224   -0.0485   59.9151 C.3     1  ZINC000762020937   -0.1800
     21 C21       -16.1542   -2.5991   56.1710 C.3     1  ZINC000762020937   -0.1000
     22 C22       -17.6249   -2.2154   56.3455 C.3     1  ZINC000762020937   -0.1400
     23 C23       -15.3422   -1.3546   55.8063 C.3     1  ZINC000762020937   -0.1400
     24 N24       -14.1754   -5.1668   56.9541 N.2     1  ZINC000762020937   -0.3700
     25 O25       -13.0030   -5.4283   56.7851 O.3     1  ZINC000762020937    0.0900
     26 C26        -9.6045   -2.8929   58.5873 C.ar    1  ZINC000762020937   -0.1500
     27 C27        -9.1742   -1.6893   59.1211 C.ar    1  ZINC000762020937    0.1000
     28 O28        -8.4852   -1.6711   60.2933 O.3     1  ZINC000762020937   -0.3100
     29 C29        -9.2530   -1.5924   61.4960 C.3     1  ZINC000762020937    0.0200
     30 H30        -8.7220    1.7515   57.2406 H       1  ZINC000762020937    0.0600
     31 H31       -10.3174    1.9788   57.9964 H       1  ZINC000762020937    0.0600
     32 H32        -8.8748    2.7297   58.7199 H       1  ZINC000762020937    0.1000
     33 H33       -10.3771    0.4017   56.7491 H       1  ZINC000762020937    0.1400
     34 H34       -11.1285   -1.7439   55.8048 H       1  ZINC000762020937    0.1300
     35 H35       -10.4851   -4.2712   55.7617 H       1  ZINC000762020937    0.1200
     36 H36       -10.3012   -5.0434   57.3550 H       1  ZINC000762020937    0.1200
     37 H37       -15.1654   -1.2247   58.1391 H       1  ZINC000762020937    0.4100
     38 H38       -14.2639   -1.0736   63.0961 H       1  ZINC000762020937    0.0600
     39 H39       -12.8518   -0.1210   62.5796 H       1  ZINC000762020937    0.0700
     40 H40       -14.4938    0.5280   62.3544 H       1  ZINC000762020937    0.0900
     41 H41       -13.1476   -2.7600   59.9707 H       1  ZINC000762020937    0.0700
     42 H42       -12.0656   -2.0411   61.1876 H       1  ZINC000762020937    0.0800
     43 H43       -13.4778   -2.9937   61.7041 H       1  ZINC000762020937    0.0700
     44 H44       -14.0305    0.8561   59.9212 H       1  ZINC000762020937    0.0900
     45 H45       -12.3885    0.2071   60.1465 H       1  ZINC000762020937    0.0700
     46 H46       -13.4704   -0.5118   58.9296 H       1  ZINC000762020937    0.0600
     47 H47       -16.0635   -3.3381   55.3748 H       1  ZINC000762020937    0.0800
     48 H48       -17.7157   -1.4764   57.1415 H       1  ZINC000762020937    0.0600
     49 H49       -18.0036   -1.7944   55.4140 H       1  ZINC000762020937    0.0600
     50 H50       -18.2034   -3.1020   56.6051 H       1  ZINC000762020937    0.0500
     51 H51       -14.2944   -1.6280   55.6820 H       1  ZINC000762020937    0.0500
     52 H52       -15.7209   -0.9337   54.8750 H       1  ZINC000762020937    0.0600
     53 H53       -15.4329   -0.6156   56.6024 H       1  ZINC000762020937    0.0700
     54 H54        -9.3898   -3.8187   59.1004 H       1  ZINC000762020937    0.1400
     55 H55        -9.9173   -2.4542   61.5600 H       1  ZINC000762020937    0.0600
     56 H56        -8.5826   -1.5858   62.3553 H       1  ZINC000762020937    0.1000
     57 H57        -9.8448   -0.6771   61.4900 H       1  ZINC000762020937    0.0600
@<TRIPOS>BOND
     1     1     2    1
     2     1    30    1
     3     1    31    1
     4     1    32    1
     5     2     3    1
     6     3    27   ar
     7     3     4   ar
     8     4     5   ar
     9     4    33    1
    10     5     6   ar
    11     5    34    1
    12     6     7    1
    13     6    26   ar
    14     7     8    1
    15     7    35    1
    16     7    36    1
    17     8    25    1
    18     8     9    2
    19     9    10    1
    20    10    11    1
    21    10    24    2
    22    11    12    1
    23    11    13    1
    24    11    21    1
    25    13    14   am
    26    13    37    1
    27    14    15    2
    28    14    16    1
    29    16    17    1
    30    17    18    1
    31    17    19    1
    32    17    20    1
    33    18    38    1
    34    18    39    1
    35    18    40    1
    36    19    41    1
    37    19    42    1
    38    19    43    1
    39    20    44    1
    40    20    45    1
    41    20    46    1
    42    21    22    1
    43    21    23    1
    44    21    47    1
    45    22    48    1
    46    22    49    1
    47    22    50    1
    48    23    51    1
    49    23    52    1
    50    23    53    1
    51    24    25    1
    52    26    27   ar
    53    26    54    1
    54    27    28    1
    55    28    29    1
    56    29    55    1
    57    29    56    1
    58    29    57    1
@<TRIPOS>SUBSTRUCTURE
     1 ZINC000762020937        1 TEMP              0 ****  ****    0 ROOT


##########                                Name:    ZINC000015179664
##########                DOCK_Rotatable_Bonds:                   8
##########                         Heavy_Atoms:                  25
##########                    Molecular_Weight:             361.422
##########                DOCK_Rotatable_Bonds:                   8
##########                       Formal_Charge:        -2.23517e-07
##########                     HBond_Acceptors:                   8
##########                        HBond_Donors:                   1
##########                         Heavy_Atoms:                  25
##########                          Grid_Score:          -36.018490
##########                     Grid_vdw_energy:          -35.787151
##########                      Grid_es_energy:           -0.231338
##########           Internal_energy_repulsive:           28.296413

@<TRIPOS>MOLECULE
ZINC000015179664
 44 45 1 0 0
SMALL
USER_CHARGES


@<TRIPOS>ATOM
      1 C1        -11.5982   -4.2327   52.7434 C.3     1  ZINC000015179664   -0.1600
      2 C2        -12.5053   -3.2762   53.5203 C.3     1  ZINC000015179664    0.1800
      3 H3        -13.4480   -3.1557   52.9868 H       1  ZINC000015179664    0.1200
      4 C4        -11.8275   -1.9366   53.6516 C.ar    1  ZINC000015179664   -0.1000
      5 C5        -12.4172   -0.9341   54.3983 C.ar    1  ZINC000015179664   -0.0700
      6 C6        -11.7953    0.2949   54.5188 C.ar    1  ZINC000015179664   -0.1200
      7 C7        -10.5838    0.5207   53.8929 C.ar    1  ZINC000015179664   -0.0500
      8 C8         -9.9935   -0.4825   53.1469 C.ar    1  ZINC000015179664   -0.0400
      9 N9         -8.6963   -0.2405   52.4763 N.pl3   1  ZINC000015179664    0.0300
     10 O10        -8.1489    0.8423   52.5818 O.2     1  ZINC000015179664   -0.1600
     11 O11        -8.1763   -1.1244   51.8191 O.2     1  ZINC000015179664   -0.1500
     12 C12       -10.6130   -1.7125   53.0300 C.ar    1  ZINC000015179664   -0.0400
     13 N13       -12.7652   -3.8247   54.8536 N.am    1  ZINC000015179664   -0.6100
     14 C14       -14.1103   -4.2858   55.2066 C.3     1  ZINC000015179664    0.0600
     15 C15       -11.7670   -3.9053   55.7555 C.2     1  ZINC000015179664    0.5200
     16 O16       -10.6531   -3.5250   55.4628 O.2     1  ZINC000015179664   -0.5200
     17 C17       -12.0347   -4.4678   57.1277 C.3     1  ZINC000015179664   -0.1500
     18 C18       -10.7485   -4.4279   57.9552 C.3     1  ZINC000015179664    0.1300
     19 N19       -10.6959   -3.1773   58.7163 N.am    1  ZINC000015179664   -0.7300
     20 C20        -9.8798   -3.0717   59.7836 C.2     1  ZINC000015179664    0.5800
     21 O21        -9.1879   -4.0153   60.1159 O.2     1  ZINC000015179664   -0.5300
     22 C22        -9.8257   -1.8145   60.5472 C.2     1  ZINC000015179664   -0.1500
     23 C23        -9.0103   -1.6224   61.6186 C.2     1  ZINC000015179664   -0.2200
     24 S24        -9.2079   -0.0543   62.2568 S.3     1  ZINC000015179664    0.1900
     25 C25       -10.4185    0.3630   61.0566 C.2     1  ZINC000015179664   -0.2300
     26 C26       -10.6287   -0.6561   60.2319 C.2     1  ZINC000015179664   -0.0900
     27 H27       -11.4048   -3.8246   51.7513 H       1  ZINC000015179664    0.0800
     28 H28       -10.6554   -4.3532   53.2769 H       1  ZINC000015179664    0.0600
     29 H29       -12.0884   -5.2016   52.6484 H       1  ZINC000015179664    0.0700
     30 H30       -13.3638   -1.1105   54.8872 H       1  ZINC000015179664    0.1500
     31 H31       -12.2564    1.0786   55.1015 H       1  ZINC000015179664    0.1500
     32 H32       -10.0984    1.4809   53.9865 H       1  ZINC000015179664    0.1600
     33 H33       -10.1520   -2.4962   52.4472 H       1  ZINC000015179664    0.1600
     34 H34       -14.2251   -5.3294   54.9141 H       1  ZINC000015179664    0.0600
     35 H35       -14.2557   -4.1920   56.2828 H       1  ZINC000015179664    0.0800
     36 H36       -14.8508   -3.6787   54.6857 H       1  ZINC000015179664    0.0800
     37 H37       -12.8027   -3.8721   57.6210 H       1  ZINC000015179664    0.1000
     38 H38       -12.3769   -5.4987   57.0373 H       1  ZINC000015179664    0.1000
     39 H39       -10.7329   -5.2731   58.6435 H       1  ZINC000015179664    0.0800
     40 H40        -9.8867   -4.4851   57.2902 H       1  ZINC000015179664    0.0800
     41 H41       -11.2485   -2.4251   58.4520 H       1  ZINC000015179664    0.4000
     42 H42        -8.3298   -2.3632   62.0119 H       1  ZINC000015179664    0.1700
     43 H43       -10.9200    1.3175   60.9950 H       1  ZINC000015179664    0.1700
     44 H44       -11.3334   -0.6248   59.4141 H       1  ZINC000015179664    0.1600
@<TRIPOS>BOND
     1     1     2    1
     2     1    27    1
     3     1    28    1
     4     1    29    1
     5     2     3    1
     6     2     4    1
     7     2    13    1
     8     4    12   ar
     9     4     5   ar
    10     5     6   ar
    11     5    30    1
    12     6     7   ar
    13     6    31    1
    14     7     8   ar
    15     7    32    1
    16     8     9    1
    17     8    12   ar
    18     9    10    2
    19     9    11    2
    20    12    33    1
    21    13    14    1
    22    13    15   am
    23    14    34    1
    24    14    35    1
    25    14    36    1
    26    15    16    2
    27    15    17    1
    28    17    18    1
    29    17    37    1
    30    17    38    1
    31    18    19    1
    32    18    39    1
    33    18    40    1
    34    19    20   am
    35    19    41    1
    36    20    21    2
    37    20    22    1
    38    22    26    1
    39    22    23    2
    40    23    24    1
    41    23    42    1
    42    24    25    1
    43    25    26    2
    44    25    43    1
    45    26    44    1
@<TRIPOS>SUBSTRUCTURE
     1 ZINC000015179664        1 TEMP              0 ****  ****    0 ROOT


##########                                Name:    ZINC000672622940
##########                DOCK_Rotatable_Bonds:                   7
##########                         Heavy_Atoms:                  30
##########                    Molecular_Weight:             416.523
##########                DOCK_Rotatable_Bonds:                   7
##########                       Formal_Charge:          -0.0100002
##########                     HBond_Acceptors:                   9
##########                        HBond_Donors:                   1
##########                         Heavy_Atoms:                  30
##########                          Grid_Score:          -36.004570
##########                     Grid_vdw_energy:          -35.561256
##########                      Grid_es_energy:           -0.443314
##########           Internal_energy_repulsive:           25.440388

@<TRIPOS>MOLECULE
ZINC000672622940
 62 65 1 0 0
SMALL
USER_CHARGES


@<TRIPOS>ATOM
      1 C1        -15.4422   -4.2059   46.5356 C.3     1  ZINC000672622940    0.0800
      2 N2        -16.4796   -3.2644   46.1074 N.am    1  ZINC000672622940   -0.6200
      3 C3        -17.4965   -3.6849   45.1401 C.3     1  ZINC000672622940    0.0700
      4 C4        -16.4986   -2.0113   46.6034 C.2     1  ZINC000672622940    0.5200
      5 O5        -17.3583   -1.2323   46.2500 O.2     1  ZINC000672622940   -0.5300
      6 C6        -15.4516   -1.5783   47.5970 C.3     1  ZINC000672622940   -0.1000
      7 H7        -14.5231   -2.1157   47.4040 H       1  ZINC000672622940    0.1000
      8 C8        -15.2083   -0.0741   47.4587 C.3     1  ZINC000672622940   -0.1300
      9 C9        -14.1454    0.3655   48.4675 C.3     1  ZINC000672622940   -0.1100
     10 C10       -14.6288    0.0553   49.8856 C.3     1  ZINC000672622940   -0.1300
     11 C11       -14.8720   -1.4489   50.0238 C.3     1  ZINC000672622940    0.1400
     12 H12       -13.9436   -1.9863   49.8308 H       1  ZINC000672622940    0.1000
     13 N13       -15.3349   -1.7460   51.3817 N.am    1  ZINC000672622940   -0.6900
     14 C14       -14.4882   -1.6269   52.4235 C.2     1  ZINC000672622940    0.5100
     15 O15       -13.3427   -1.2722   52.2369 O.2     1  ZINC000672622940   -0.5100
     16 C16       -14.9599   -1.9317   53.8084 C.2     1  ZINC000672622940    0.5100
     17 O17       -15.8257   -1.2511   54.3181 O.2     1  ZINC000672622940   -0.5200
     18 N18       -14.4236   -2.9625   54.4914 N.am    1  ZINC000672622940   -0.5800
     19 C19       -13.3704   -3.7918   53.8901 C.3     1  ZINC000672622940    0.0700
     20 C20       -12.1715   -3.8334   54.8429 C.3     1  ZINC000672622940   -0.1200
     21 C21       -12.6365   -4.3097   56.2210 C.3     1  ZINC000672622940    0.0000
     22 C22       -11.4537   -4.3846   57.1518 C.2     1  ZINC000672622940    0.2000
     23 N23       -10.7882   -5.4604   57.4725 N.2     1  ZINC000672622940   -0.2800
     24 N24        -9.8412   -5.1567   58.2874 N.2     1  ZINC000672622940   -0.2800
     25 C25        -9.8598   -3.8714   58.5226 C.2     1  ZINC000672622940    0.1500
     26 C26        -9.1529   -2.7781   59.2942 C.3     1  ZINC000672622940   -0.0400
     27 C27        -9.6272   -1.4695   58.6218 C.3     1  ZINC000672622940   -0.1300
     28 C28       -10.9836   -1.8970   58.0199 C.3     1  ZINC000672622940    0.1000
     29 N29       -10.8792   -3.3457   57.8073 N.pl3   1  ZINC000672622940   -0.4900
     30 C30       -13.6655   -3.3257   56.7822 C.3     1  ZINC000672622940   -0.1200
     31 C31       -14.8770   -3.2745   55.8537 C.3     1  ZINC000672622940    0.1100
     32 C32       -15.9350   -1.8885   49.0150 C.3     1  ZINC000672622940   -0.1100
     33 H33       -14.5818   -4.1254   45.8713 H       1  ZINC000672622940    0.0600
     34 H34       -15.1371   -3.9714   47.5554 H       1  ZINC000672622940    0.0800
     35 H35       -15.8359   -5.2217   46.4988 H       1  ZINC000672622940    0.0700
     36 H36       -18.3517   -4.1033   45.6708 H       1  ZINC000672622940    0.0600
     37 H37       -17.8181   -2.8241   44.5539 H       1  ZINC000672622940    0.0800
     38 H38       -17.0759   -4.4401   44.4762 H       1  ZINC000672622940    0.0700
     39 H39       -14.8639    0.1469   46.4484 H       1  ZINC000672622940    0.0800
     40 H40       -16.1369    0.4633   47.6518 H       1  ZINC000672622940    0.0700
     41 H41       -13.2169   -0.1719   48.2745 H       1  ZINC000672622940    0.0700
     42 H42       -13.9722    1.4372   48.3690 H       1  ZINC000672622940    0.0700
     43 H43       -13.8716    0.3685   50.6043 H       1  ZINC000672622940    0.0700
     44 H44       -15.5573    0.5927   50.0786 H       1  ZINC000672622940    0.0700
     45 H45       -16.2508   -2.0283   51.5310 H       1  ZINC000672622940    0.4100
     46 H46       -13.7467   -4.8024   53.7319 H       1  ZINC000672622940    0.0700
     47 H47       -13.0648   -3.3600   52.9371 H       1  ZINC000672622940    0.1400
     48 H48       -11.4215   -4.5221   54.4540 H       1  ZINC000672622940    0.0800
     49 H49       -11.7404   -2.8360   54.9291 H       1  ZINC000672622940    0.0800
     50 H50       -13.0901   -5.2967   56.1302 H       1  ZINC000672622940    0.0900
     51 H51        -9.4507   -2.7976   60.3426 H       1  ZINC000672622940    0.1000
     52 H52        -8.0720   -2.8842   59.2019 H       1  ZINC000672622940    0.1000
     53 H53        -9.7599   -0.6780   59.3593 H       1  ZINC000672622940    0.1100
     54 H54        -8.9339   -1.1596   57.8397 H       1  ZINC000672622940    0.0900
     55 H55       -11.7923   -1.6712   58.7151 H       1  ZINC000672622940    0.1000
     56 H56       -11.1505   -1.3904   57.0693 H       1  ZINC000672622940    0.1000
     57 H57       -13.9789   -3.6529   57.7736 H       1  ZINC000672622940    0.0800
     58 H58       -13.2203   -2.3330   56.8501 H       1  ZINC000672622940    0.0800
     59 H59       -15.5674   -2.5035   56.1960 H       1  ZINC000672622940    0.1000
     60 H60       -15.3782   -4.2424   55.8531 H       1  ZINC000672622940    0.0800
     61 H61       -16.8635   -1.3511   49.2081 H       1  ZINC000672622940    0.0800
     62 H62       -16.1083   -2.9601   49.1136 H       1  ZINC000672622940    0.0800
@<TRIPOS>BOND
     1     1     2    1
     2     1    33    1
     3     1    34    1
     4     1    35    1
     5     2     3    1
     6     2     4   am
     7     3    36    1
     8     3    37    1
     9     3    38    1
    10     4     5    2
    11     4     6    1
    12     6     7    1
    13     6    32    1
    14     6     8    1
    15     8     9    1
    16     8    39    1
    17     8    40    1
    18     9    10    1
    19     9    41    1
    20     9    42    1
    21    10    11    1
    22    10    43    1
    23    10    44    1
    24    11    12    1
    25    11    13    1
    26    11    32    1
    27    13    14   am
    28    13    45    1
    29    14    15    2
    30    14    16    1
    31    16    17    2
    32    16    18   am
    33    18    31    1
    34    18    19    1
    35    19    20    1
    36    19    46    1
    37    19    47    1
    38    20    21    1
    39    20    48    1
    40    20    49    1
    41    21    22    1
    42    21    30    1
    43    21    50    1
    44    22    29    1
    45    22    23    2
    46    23    24    1
    47    24    25    2
    48    25    29    1
    49    25    26    1
    50    26    27    1
    51    26    51    1
    52    26    52    1
    53    27    28    1
    54    27    53    1
    55    27    54    1
    56    28    29    1
    57    28    55    1
    58    28    56    1
    59    30    31    1
    60    30    57    1
    61    30    58    1
    62    31    59    1
    63    31    60    1
    64    32    61    1
    65    32    62    1
@<TRIPOS>SUBSTRUCTURE
     1 ZINC000672622940        1 TEMP              0 ****  ****    0 ROOT


##########                                Name:    ZINC000008416770
##########                DOCK_Rotatable_Bonds:                  13
##########                         Heavy_Atoms:                  30
##########                    Molecular_Weight:             412.442
##########                DOCK_Rotatable_Bonds:                  13
##########                       Formal_Charge:          -0.0199998
##########                     HBond_Acceptors:                   8
##########                        HBond_Donors:                   2
##########                         Heavy_Atoms:                  30
##########                          Grid_Score:          -36.002369
##########                     Grid_vdw_energy:          -35.298756
##########                      Grid_es_energy:           -0.703612
##########           Internal_energy_repulsive:           11.174713

@<TRIPOS>MOLECULE
ZINC000008416770
 54 55 1 0 0
SMALL
USER_CHARGES


@<TRIPOS>ATOM
      1 C1        -14.7409   -3.0457   58.3546 C.3     1  ZINC000008416770   -0.1500
      2 C2        -14.5564   -3.5039   56.9066 C.3     1  ZINC000008416770    0.0600
      3 O3        -13.4169   -2.8185   56.3235 O.3     1  ZINC000008416770   -0.3500
      4 C4        -13.1157   -3.1123   55.0434 C.2     1  ZINC000008416770    0.5100
      5 O5        -13.7457   -3.9662   54.4516 O.2     1  ZINC000008416770   -0.5100
      6 C6        -12.0213   -2.3974   54.3606 C.ar    1  ZINC000008416770   -0.1500
      7 C7        -11.2770   -1.4345   55.0486 C.ar    1  ZINC000008416770   -0.0400
      8 C8        -10.2559   -0.7695   54.4083 C.ar    1  ZINC000008416770   -0.1400
      9 C9         -9.9643   -1.0547   53.0779 C.ar    1  ZINC000008416770    0.1800
     10 N10        -8.9295   -0.3792   52.4326 N.am    1  ZINC000008416770   -0.6700
     11 C11        -9.0010    0.9554   52.2591 C.2     1  ZINC000008416770    0.5200
     12 O12        -9.9656    1.5688   52.6645 O.2     1  ZINC000008416770   -0.5100
     13 C13        -7.8824    1.6855   51.5616 C.3     1  ZINC000008416770   -0.1300
     14 C14        -6.6551    0.7759   51.4759 C.3     1  ZINC000008416770   -0.1000
     15 C15        -5.4397    1.6022   51.1429 C.2     1  ZINC000008416770    0.4700
     16 O16        -5.5687    2.7471   50.7788 O.2     1  ZINC000008416770   -0.5100
     17 O17        -4.2137    1.0664   51.2506 O.3     1  ZINC000008416770   -0.3300
     18 C18        -3.0912    1.9872   51.2704 C.3     1  ZINC000008416770    0.0500
     19 C19        -2.4257    1.9971   49.9183 C.2     1  ZINC000008416770    0.5100
     20 O20        -2.0395    3.0427   49.4401 O.2     1  ZINC000008416770   -0.4900
     21 N21        -2.2598    0.8441   49.2406 N.am    1  ZINC000008416770   -0.6700
     22 C22        -1.6419    0.8532   47.9851 C.ar    1  ZINC000008416770    0.1400
     23 C23        -0.2913    0.5504   47.8721 C.ar    1  ZINC000008416770   -0.1400
     24 C24         0.3156    0.5603   46.6314 C.ar    1  ZINC000008416770   -0.1000
     25 C25        -0.4201    0.8717   45.5027 C.ar    1  ZINC000008416770   -0.1000
     26 C26         0.2455    0.8819   44.1506 C.3     1  ZINC000008416770   -0.1200
     27 C27        -1.7651    1.1731   45.6119 C.ar    1  ZINC000008416770   -0.1000
     28 C28        -2.3792    1.1594   46.8489 C.ar    1  ZINC000008416770   -0.1200
     29 C29       -10.7029   -2.0128   52.3902 C.ar    1  ZINC000008416770   -0.1600
     30 C30       -11.7221   -2.6852   53.0256 C.ar    1  ZINC000008416770   -0.0300
     31 H31       -13.8437   -3.2807   58.9272 H       1  ZINC000008416770    0.0700
     32 H32       -14.9141   -1.9697   58.3760 H       1  ZINC000008416770    0.0700
     33 H33       -15.5964   -3.5601   58.7923 H       1  ZINC000008416770    0.0800
     34 H34       -14.3832   -4.5798   56.8852 H       1  ZINC000008416770    0.0700
     35 H35       -15.4536   -3.2689   56.3340 H       1  ZINC000008416770    0.0700
     36 H36       -11.5030   -1.2125   56.0810 H       1  ZINC000008416770    0.1400
     37 H37        -9.6807   -0.0254   54.9390 H       1  ZINC000008416770    0.1400
     38 H38        -8.1580   -0.8698   52.1085 H       1  ZINC000008416770    0.4200
     39 H39        -8.2003    1.9623   50.5564 H       1  ZINC000008416770    0.1100
     40 H40        -7.6296    2.5848   52.1233 H       1  ZINC000008416770    0.1100
     41 H41        -6.5045    0.2778   52.4337 H       1  ZINC000008416770    0.1200
     42 H42        -6.8105    0.0283   50.6982 H       1  ZINC000008416770    0.1200
     43 H43        -3.4477    2.9896   51.5074 H       1  ZINC000008416770    0.1100
     44 H44        -2.3733    1.6687   52.0263 H       1  ZINC000008416770    0.1100
     45 H45        -2.5686    0.0079   49.6230 H       1  ZINC000008416770    0.4100
     46 H46         0.2839    0.3079   48.7533 H       1  ZINC000008416770    0.1300
     47 H47         1.3659    0.3249   46.5428 H       1  ZINC000008416770    0.1300
     48 H48         0.1730   -0.1090   43.7024 H       1  ZINC000008416770    0.0700
     49 H49        -0.2501    1.6089   43.5072 H       1  ZINC000008416770    0.0700
     50 H50         1.2950    1.1534   44.2644 H       1  ZINC000008416770    0.0700
     51 H51        -2.3370    1.4160   44.7284 H       1  ZINC000008416770    0.1300
     52 H52        -3.4299    1.3950   46.9335 H       1  ZINC000008416770    0.1300
     53 H53       -10.4736   -2.2319   51.3578 H       1  ZINC000008416770    0.1400
     54 H54       -12.2949   -3.4286   52.4912 H       1  ZINC000008416770    0.1400
@<TRIPOS>BOND
     1     1     2    1
     2     1    31    1
     3     1    32    1
     4     1    33    1
     5     2     3    1
     6     2    34    1
     7     2    35    1
     8     3     4    1
     9     4     5    2
    10     4     6    1
    11     6    30   ar
    12     6     7   ar
    13     7     8   ar
    14     7    36    1
    15     8     9   ar
    16     8    37    1
    17     9    10    1
    18     9    29   ar
    19    10    11   am
    20    10    38    1
    21    11    12    2
    22    11    13    1
    23    13    14    1
    24    13    39    1
    25    13    40    1
    26    14    15    1
    27    14    41    1
    28    14    42    1
    29    15    16    2
    30    15    17    1
    31    17    18    1
    32    18    19    1
    33    18    43    1
    34    18    44    1
    35    19    20    2
    36    19    21   am
    37    21    22    1
    38    21    45    1
    39    22    28   ar
    40    22    23   ar
    41    23    24   ar
    42    23    46    1
    43    24    25   ar
    44    24    47    1
    45    25    26    1
    46    25    27   ar
    47    26    48    1
    48    26    49    1
    49    26    50    1
    50    27    28   ar
    51    27    51    1
    52    28    52    1
    53    29    30   ar
    54    29    53    1
    55    30    54    1
@<TRIPOS>SUBSTRUCTURE
     1 ZINC000008416770        1 TEMP              0 ****  ****    0 ROOT


##########                                Name:    ZINC000772422035
##########                DOCK_Rotatable_Bonds:                  10
##########                         Heavy_Atoms:                  25
##########                    Molecular_Weight:             348.399
##########                DOCK_Rotatable_Bonds:                  10
##########                       Formal_Charge:          0.00999987
##########                     HBond_Acceptors:                   7
##########                        HBond_Donors:                   0
##########                         Heavy_Atoms:                  25
##########                          Grid_Score:          -36.000988
##########                     Grid_vdw_energy:          -35.549480
##########                      Grid_es_energy:           -0.451507
##########           Internal_energy_repulsive:           15.741705

@<TRIPOS>MOLECULE
ZINC000772422035
 49 50 1 0 0
SMALL
USER_CHARGES


@<TRIPOS>ATOM
      1 C1        -11.1153   -2.6652   52.1087 C.3     1  ZINC000772422035    0.0300
      2 O2        -12.1571   -3.5654   52.4912 O.3     1  ZINC000772422035   -0.3900
      3 C3        -12.2606   -3.7691   53.9017 C.3     1  ZINC000772422035    0.0600
      4 C4        -13.3745   -4.7771   54.1910 C.3     1  ZINC000772422035    0.0700
      5 O5        -13.5053   -4.9503   55.6034 O.3     1  ZINC000772422035   -0.3000
      6 C6        -14.1166   -3.9540   56.2922 C.ar    1  ZINC000772422035    0.3300
      7 C7        -14.2961   -4.0759   57.6639 C.ar    1  ZINC000772422035   -0.1700
      8 C8        -14.9211   -3.0523   58.3550 C.ar    1  ZINC000772422035   -0.0200
      9 C9        -15.1347   -3.1456   59.8439 C.3     1  ZINC000772422035    0.1100
     10 O10       -14.8748   -1.8530   60.4520 O.3     1  ZINC000772422035   -0.3500
     11 C11       -13.8443   -1.7788   61.3090 C.2     1  ZINC000772422035    0.4700
     12 O12       -14.0511   -1.6731   62.4947 O.2     1  ZINC000772422035   -0.5000
     13 C13       -12.4295   -1.8274   60.7921 C.3     1  ZINC000772422035   -0.1100
     14 C14       -11.7986   -0.4378   60.9016 C.3     1  ZINC000772422035    0.0000
     15 H15       -12.4990    0.2419   61.3872 H       1  ZINC000772422035    0.1000
     16 C16       -11.4685    0.0843   59.5019 C.3     1  ZINC000772422035   -0.1500
     17 C17       -10.5342   -0.5230   61.7172 C.2     1  ZINC000772422035   -0.2000
     18 C18        -9.4076   -1.2214   61.4385 C.2     1  ZINC000772422035   -0.0200
     19 C19        -9.1581   -2.0869   60.2304 C.3     1  ZINC000772422035   -0.0800
     20 O20        -8.5584   -0.9908   62.4497 O.3     1  ZINC000772422035    0.1000
     21 N21        -9.0417   -0.2527   63.2766 N.2     1  ZINC000772422035   -0.3600
     22 C22       -10.2470    0.1123   62.9470 C.2     1  ZINC000772422035    0.0300
     23 C23       -11.1592    1.0237   63.7269 C.3     1  ZINC000772422035   -0.0800
     24 C24       -15.3465   -1.9379   57.6455 C.ar    1  ZINC000772422035   -0.1900
     25 C25       -15.1349   -1.8840   56.2819 C.ar    1  ZINC000772422035    0.1400
     26 N26       -14.5310   -2.8734   55.6517 N.ar    1  ZINC000772422035   -0.5300
     27 H27       -11.1025   -2.5641   51.0234 H       1  ZINC000772422035    0.0900
     28 H28       -11.2929   -1.6902   52.5623 H       1  ZINC000772422035    0.0400
     29 H29       -10.1556   -3.0547   52.4486 H       1  ZINC000772422035    0.0400
     30 H30       -11.3147   -4.1533   54.2837 H       1  ZINC000772422035    0.0600
     31 H31       -12.4916   -2.8222   54.3897 H       1  ZINC000772422035    0.0700
     32 H32       -14.3147   -4.4071   53.7818 H       1  ZINC000772422035    0.0800
     33 H33       -13.1285   -5.7331   53.7289 H       1  ZINC000772422035    0.0800
     34 H34       -13.9528   -4.9577   58.1845 H       1  ZINC000772422035    0.1400
     35 H35       -16.1641   -3.4415   60.0454 H       1  ZINC000772422035    0.0900
     36 H36       -14.4547   -3.8875   60.2626 H       1  ZINC000772422035    0.0900
     37 H37       -11.8508   -2.5368   61.3835 H       1  ZINC000772422035    0.1100
     38 H38       -12.4345   -2.1429   59.7488 H       1  ZINC000772422035    0.1100
     39 H39       -10.8712   -0.6559   58.9696 H       1  ZINC000772422035    0.0600
     40 H40       -12.3933    0.2665   58.9546 H       1  ZINC000772422035    0.0800
     41 H41       -10.9058    1.0142   59.5843 H       1  ZINC000772422035    0.0600
     42 H42        -8.8060   -1.4670   59.4059 H       1  ZINC000772422035    0.0900
     43 H43        -8.4035   -2.8361   60.4697 H       1  ZINC000772422035    0.0900
     44 H44       -10.0845   -2.5836   59.9417 H       1  ZINC000772422035    0.0900
     45 H45       -11.0535    2.0445   63.3598 H       1  ZINC000772422035    0.0800
     46 H46       -12.1918    0.6978   63.6022 H       1  ZINC000772422035    0.0800
     47 H47       -10.8922    0.9880   64.7832 H       1  ZINC000772422035    0.0800
     48 H48       -15.8379   -1.1218   58.1542 H       1  ZINC000772422035    0.1400
     49 H49       -15.4639   -1.0190   55.7251 H       1  ZINC000772422035    0.1700
@<TRIPOS>BOND
     1     1     2    1
     2     1    27    1
     3     1    28    1
     4     1    29    1
     5     2     3    1
     6     3     4    1
     7     3    30    1
     8     3    31    1
     9     4     5    1
    10     4    32    1
    11     4    33    1
    12     5     6    1
    13     6    26   ar
    14     6     7   ar
    15     7     8   ar
    16     7    34    1
    17     8     9    1
    18     8    24   ar
    19     9    10    1
    20     9    35    1
    21     9    36    1
    22    10    11    1
    23    11    12    2
    24    11    13    1
    25    13    14    1
    26    13    37    1
    27    13    38    1
    28    14    15    1
    29    14    16    1
    30    14    17    1
    31    16    39    1
    32    16    40    1
    33    16    41    1
    34    17    22    1
    35    17    18    2
    36    18    19    1
    37    18    20    1
    38    19    42    1
    39    19    43    1
    40    19    44    1
    41    20    21    1
    42    21    22    2
    43    22    23    1
    44    23    45    1
    45    23    46    1
    46    23    47    1
    47    24    25   ar
    48    24    48    1
    49    25    26   ar
    50    25    49    1
@<TRIPOS>SUBSTRUCTURE
     1 ZINC000772422035        1 TEMP              0 ****  ****    0 ROOT


##########                                Name:    ZINC001573443776
##########                DOCK_Rotatable_Bonds:                   8
##########                         Heavy_Atoms:                  28
##########                    Molecular_Weight:             386.457
##########                DOCK_Rotatable_Bonds:                   8
##########                       Formal_Charge:          0.00999954
##########                     HBond_Acceptors:                  10
##########                        HBond_Donors:                   3
##########                         Heavy_Atoms:                  28
##########                          Grid_Score:          -35.989655
##########                     Grid_vdw_energy:          -33.498810
##########                      Grid_es_energy:           -2.490845
##########           Internal_energy_repulsive:           36.081715

@<TRIPOS>MOLECULE
ZINC001573443776
 54 56 1 0 0
SMALL
USER_CHARGES


@<TRIPOS>ATOM
      1 C1         -6.9596    1.8479   51.9877 C.3     1  ZINC001573443776   -0.1800
      2 C2         -7.7142    0.5445   52.0401 C.2     1  ZINC001573443776    0.5100
      3 O3         -7.1369   -0.4997   51.8224 O.2     1  ZINC001573443776   -0.5400
      4 N4         -9.0306    0.5391   52.3290 N.am    1  ZINC001573443776   -0.6100
      5 C5         -9.7437    1.7960   52.5950 C.3     1  ZINC001573443776    0.1100
      6 C6        -10.4634    1.6789   53.9423 C.3     1  ZINC001573443776   -0.1300
      7 C7        -11.3591    0.4381   53.9316 C.3     1  ZINC001573443776   -0.1000
      8 C8        -10.4992   -0.8122   53.7331 C.3     1  ZINC001573443776   -0.1200
      9 H9         -9.7628   -0.8784   54.5340 H       1  ZINC001573443776    0.1000
     10 C10       -11.3783   -2.0361   53.7558 C.2     1  ZINC001573443776    0.5200
     11 O11       -11.8010   -2.4984   52.7173 O.2     1  ZINC001573443776   -0.5300
     12 N12       -11.6948   -2.6167   54.9302 N.am    1  ZINC001573443776   -0.7300
     13 C13       -12.5480   -3.8074   54.9520 C.3     1  ZINC001573443776    0.1100
     14 C14       -13.1084   -4.0075   56.3616 C.3     1  ZINC001573443776    0.1400
     15 H15       -13.5049   -3.0624   56.7325 H       1  ZINC001573443776    0.0900
     16 C16       -14.2277   -5.0499   56.3223 C.3     1  ZINC001573443776   -0.1700
     17 N17       -12.0402   -4.4713   57.2505 N.pl3   1  ZINC001573443776   -0.7200
     18 C18       -11.4677   -3.5955   58.1644 C.ar    1  ZINC001573443776    0.4300
     19 C19       -10.0909   -3.3917   58.1510 C.ar    1  ZINC001573443776   -0.2500
     20 C20        -9.5297   -2.5190   59.0625 C.ar    1  ZINC001573443776    0.0100
     21 C21       -10.3742   -1.8702   59.9695 C.ar    1  ZINC001573443776   -0.1400
     22 C22        -9.8196   -0.9227   60.9684 C.2     1  ZINC001573443776    0.2400
     23 N23        -9.8357    0.3937   60.8987 N.2     1  ZINC001573443776   -0.3000
     24 N24        -9.2585    0.8516   61.9560 N.pl3   1  ZINC001573443776   -0.2300
     25 N25        -8.8772   -0.1324   62.6933 N.2     1  ZINC001573443776   -0.0500
     26 N26        -9.2101   -1.2388   62.1199 N.2     1  ZINC001573443776   -0.2700
     27 C27       -11.7416   -2.1247   59.9222 C.ar    1  ZINC001573443776    0.2300
     28 C28       -12.6629   -1.4326   60.8934 C.3     1  ZINC001573443776   -0.1200
     29 N29       -12.2398   -2.9609   59.0338 N.ar    1  ZINC001573443776   -0.5400
     30 C30        -9.7812   -0.7229   52.3778 C.3     1  ZINC001573443776    0.1200
     31 H31        -6.9266    2.2074   50.9592 H       1  ZINC001573443776    0.0900
     32 H32        -7.4626    2.5844   52.6141 H       1  ZINC001573443776    0.0800
     33 H33        -5.9437    1.6943   52.3517 H       1  ZINC001573443776    0.1000
     34 H34        -9.0310    2.6198   52.6318 H       1  ZINC001573443776    0.1000
     35 H35       -10.4734    1.9763   51.8055 H       1  ZINC001573443776    0.0700
     36 H36        -9.7273    1.5894   54.7414 H       1  ZINC001573443776    0.0700
     37 H37       -11.0737    2.5668   54.1071 H       1  ZINC001573443776    0.0800
     38 H38       -11.8912    0.3660   54.8802 H       1  ZINC001573443776    0.0800
     39 H39       -12.0789    0.5169   53.1169 H       1  ZINC001573443776    0.0700
     40 H40       -11.3578   -2.2463   55.7608 H       1  ZINC001573443776    0.4000
     41 H41       -13.3708   -3.6780   54.2490 H       1  ZINC001573443776    0.0900
     42 H42       -11.9608   -4.6805   54.6672 H       1  ZINC001573443776    0.0800
     43 H43       -15.0224   -4.7048   55.6610 H       1  ZINC001573443776    0.0700
     44 H44       -13.8311   -5.9951   55.9515 H       1  ZINC001573443776    0.0700
     45 H45       -14.6269   -5.1924   57.3265 H       1  ZINC001573443776    0.0700
     46 H46       -11.7326   -5.3899   57.2009 H       1  ZINC001573443776    0.4100
     47 H47        -9.4688   -3.9101   57.4364 H       1  ZINC001573443776    0.1400
     48 H48        -8.4643   -2.3422   59.0750 H       1  ZINC001573443776    0.1400
     49 H49        -9.1310    1.7906   62.1636 H       1  ZINC001573443776    0.4800
     50 H50       -13.0060   -0.4923   60.4617 H       1  ZINC001573443776    0.0800
     51 H51       -13.5210   -2.0724   61.0992 H       1  ZINC001573443776    0.0800
     52 H52       -12.1281   -1.2323   61.8218 H       1  ZINC001573443776    0.1100
     53 H53       -10.5156   -0.7490   51.5728 H       1  ZINC001573443776    0.0800
     54 H54        -9.0919   -1.5609   52.2736 H       1  ZINC001573443776    0.0900
@<TRIPOS>BOND
     1     1     2    1
     2     1    31    1
     3     1    32    1
     4     1    33    1
     5     2     3    2
     6     2     4   am
     7     4    30    1
     8     4     5    1
     9     5     6    1
    10     5    34    1
    11     5    35    1
    12     6     7    1
    13     6    36    1
    14     6    37    1
    15     7     8    1
    16     7    38    1
    17     7    39    1
    18     8     9    1
    19     8    10    1
    20     8    30    1
    21    10    11    2
    22    10    12   am
    23    12    13    1
    24    12    40    1
    25    13    14    1
    26    13    41    1
    27    13    42    1
    28    14    15    1
    29    14    16    1
    30    14    17    1
    31    16    43    1
    32    16    44    1
    33    16    45    1
    34    17    18    1
    35    17    46    1
    36    18    29   ar
    37    18    19   ar
    38    19    20   ar
    39    19    47    1
    40    20    21   ar
    41    20    48    1
    42    21    22    1
    43    21    27   ar
    44    22    26    1
    45    22    23    2
    46    23    24    1
    47    24    25    1
    48    24    49    1
    49    25    26    2
    50    27    28    1
    51    27    29   ar
    52    28    50    1
    53    28    51    1
    54    28    52    1
    55    30    53    1
    56    30    54    1
@<TRIPOS>SUBSTRUCTURE
     1 ZINC001573443776        1 TEMP              0 ****  ****    0 ROOT


##########                                Name:    ZINC000062291520
##########                DOCK_Rotatable_Bonds:                  10
##########                         Heavy_Atoms:                  29
##########                    Molecular_Weight:             398.502
##########                DOCK_Rotatable_Bonds:                  10
##########                       Formal_Charge:          -0.0100006
##########                     HBond_Acceptors:                   6
##########                        HBond_Donors:                   1
##########                         Heavy_Atoms:                  29
##########                          Grid_Score:          -35.971653
##########                     Grid_vdw_energy:          -36.019691
##########                      Grid_es_energy:            0.048038
##########           Internal_energy_repulsive:           52.669598

@<TRIPOS>MOLECULE
ZINC000062291520
 59 61 1 0 0
SMALL
USER_CHARGES


@<TRIPOS>ATOM
      1 C1         -9.0040   -0.9720   52.3625 C.3     1  ZINC000062291520    0.0300
      2 O2         -9.8032   -2.1381   52.1530 O.3     1  ZINC000062291520   -0.3100
      3 C3        -11.0660   -2.1198   52.6573 C.ar    1  ZINC000062291520    0.1000
      4 C4        -11.8921   -3.2205   52.5006 C.ar    1  ZINC000062291520   -0.1700
      5 C5        -13.1779   -3.1980   53.0092 C.ar    1  ZINC000062291520   -0.1200
      6 C6        -13.6398   -2.0810   53.6794 C.ar    1  ZINC000062291520   -0.1200
      7 C7        -12.8180   -0.9811   53.8447 C.ar    1  ZINC000062291520   -0.1700
      8 C8        -11.5290   -0.9971   53.3377 C.ar    1  ZINC000062291520    0.1000
      9 O9        -10.7196    0.0837   53.4996 O.3     1  ZINC000062291520   -0.3100
     10 C10       -11.3279    1.2834   53.9817 C.3     1  ZINC000062291520    0.0700
     11 C11       -10.3022    2.4185   53.9630 C.3     1  ZINC000062291520   -0.1400
     12 C12        -9.1439    2.0638   54.8593 C.2     1  ZINC000062291520    0.5200
     13 O13        -8.1068    1.6588   54.3783 O.2     1  ZINC000062291520   -0.5400
     14 N14        -9.2605    2.1965   56.1954 N.am    1  ZINC000062291520   -0.7200
     15 C15        -8.1338    1.8533   57.0667 C.3     1  ZINC000062291520    0.1600
     16 C16        -8.6522    1.2204   58.3324 C.ar    1  ZINC000062291520   -0.1100
     17 C17        -9.1832    2.0117   59.3334 C.ar    1  ZINC000062291520   -0.1000
     18 C18        -9.6591    1.4309   60.4944 C.ar    1  ZINC000062291520   -0.1200
     19 C19        -9.6037    0.0592   60.6539 C.ar    1  ZINC000062291520   -0.0900
     20 C20        -9.0720   -0.7323   59.6527 C.ar    1  ZINC000062291520   -0.0800
     21 C21        -9.0114   -2.2280   59.8268 C.3     1  ZINC000062291520    0.0900
     22 N22        -9.7214   -2.8794   58.7180 N.3     1  ZINC000062291520   -0.5300
     23 C23        -9.4851   -4.3305   58.7213 C.3     1  ZINC000062291520    0.0100
     24 C24       -10.1925   -4.9598   57.5182 C.3     1  ZINC000062291520    0.0600
     25 O25       -11.5850   -4.6379   57.5683 O.3     1  ZINC000062291520   -0.3800
     26 C26       -11.8515   -3.2328   57.5659 C.3     1  ZINC000062291520    0.0900
     27 H27       -11.4692   -2.7914   56.6455 H       1  ZINC000062291520    0.0700
     28 C28       -13.3608   -2.9989   57.6562 C.3     1  ZINC000062291520   -0.1500
     29 C29       -11.1609   -2.5858   58.7694 C.3     1  ZINC000062291520    0.0200
     30 C30        -8.6016   -0.1523   58.4897 C.ar    1  ZINC000062291520   -0.0900
     31 H31        -9.4902   -0.1112   51.9036 H       1  ZINC000062291520    0.0500
     32 H32        -8.8897   -0.7973   53.4323 H       1  ZINC000062291520    0.0600
     33 H33        -8.0226   -1.1183   51.9113 H       1  ZINC000062291520    0.1000
     34 H34       -11.5337   -4.0946   51.9773 H       1  ZINC000062291520    0.1400
     35 H35       -13.8225   -4.0553   52.8827 H       1  ZINC000062291520    0.1300
     36 H36       -14.6445   -2.0671   54.0752 H       1  ZINC000062291520    0.1300
     37 H37       -13.1811   -0.1097   54.3694 H       1  ZINC000062291520    0.1400
     38 H38       -11.6792    1.1280   55.0018 H       1  ZINC000062291520    0.0700
     39 H39       -12.1714    1.5453   53.3429 H       1  ZINC000062291520    0.0700
     40 H40       -10.7696    3.3365   54.3194 H       1  ZINC000062291520    0.1100
     41 H41        -9.9419    2.5659   52.9448 H       1  ZINC000062291520    0.1100
     42 H42       -10.0903    2.5193   56.5802 H       1  ZINC000062291520    0.4000
     43 H43        -7.4772    1.1517   56.5522 H       1  ZINC000062291520    0.0800
     44 H44        -7.5773    2.7573   57.3141 H       1  ZINC000062291520    0.0800
     45 H45        -9.2268    3.0835   59.2086 H       1  ZINC000062291520    0.1200
     46 H46       -10.0745    2.0492   61.2764 H       1  ZINC000062291520    0.1300
     47 H47        -9.9755   -0.3944   61.5608 H       1  ZINC000062291520    0.1200
     48 H48        -7.9704   -2.5512   59.8316 H       1  ZINC000062291520    0.0500
     49 H49        -9.4815   -2.5032   60.7710 H       1  ZINC000062291520    0.0900
     50 H50        -8.4145   -4.5250   58.6569 H       1  ZINC000062291520    0.0900
     51 H51        -9.8786   -4.7612   59.6420 H       1  ZINC000062291520    0.0400
     52 H52        -9.7613   -4.5685   56.5968 H       1  ZINC000062291520    0.0600
     53 H53       -10.0679   -6.0423   57.5481 H       1  ZINC000062291520    0.1000
     54 H54       -13.7422   -3.4392   58.5774 H       1  ZINC000062291520    0.0600
     55 H55       -13.5633   -1.9279   57.6543 H       1  ZINC000062291520    0.0700
     56 H56       -13.8522   -3.4630   56.8010 H       1  ZINC000062291520    0.0700
     57 H57       -11.5820   -2.9888   59.6906 H       1  ZINC000062291520    0.0400
     58 H58       -11.3137   -1.5070   58.7402 H       1  ZINC000062291520    0.0900
     59 H59        -8.1907   -0.7709   57.7057 H       1  ZINC000062291520    0.1200
@<TRIPOS>BOND
     1     1     2    1
     2     1    31    1
     3     1    32    1
     4     1    33    1
     5     2     3    1
     6     3     8   ar
     7     3     4   ar
     8     4     5   ar
     9     4    34    1
    10     5     6   ar
    11     5    35    1
    12     6     7   ar
    13     6    36    1
    14     7     8   ar
    15     7    37    1
    16     8     9    1
    17     9    10    1
    18    10    11    1
    19    10    38    1
    20    10    39    1
    21    11    12    1
    22    11    40    1
    23    11    41    1
    24    12    13    2
    25    12    14   am
    26    14    15    1
    27    14    42    1
    28    15    16    1
    29    15    43    1
    30    15    44    1
    31    16    30   ar
    32    16    17   ar
    33    17    18   ar
    34    17    45    1
    35    18    19   ar
    36    18    46    1
    37    19    20   ar
    38    19    47    1
    39    20    21    1
    40    20    30   ar
    41    21    22    1
    42    21    48    1
    43    21    49    1
    44    22    29    1
    45    22    23    1
    46    23    24    1
    47    23    50    1
    48    23    51    1
    49    24    25    1
    50    24    52    1
    51    24    53    1
    52    25    26    1
    53    26    27    1
    54    26    28    1
    55    26    29    1
    56    28    54    1
    57    28    55    1
    58    28    56    1
    59    29    57    1
    60    29    58    1
    61    30    59    1
@<TRIPOS>SUBSTRUCTURE
     1 ZINC000062291520        1 TEMP              0 ****  ****    0 ROOT


##########                                Name:    ZINC001328997126
##########                DOCK_Rotatable_Bonds:                   7
##########                         Heavy_Atoms:                  26
##########                    Molecular_Weight:             388.488
##########                DOCK_Rotatable_Bonds:                   7
##########                       Formal_Charge:           0.0299993
##########                     HBond_Acceptors:                  10
##########                        HBond_Donors:                   1
##########                         Heavy_Atoms:                  26
##########                          Grid_Score:          -35.961433
##########                     Grid_vdw_energy:          -35.032047
##########                      Grid_es_energy:           -0.929386
##########           Internal_energy_repulsive:            9.805939

@<TRIPOS>MOLECULE
ZINC001328997126
 54 56 1 0 0
SMALL
USER_CHARGES


@<TRIPOS>ATOM
      1 C1        -13.1231    2.6440   49.1608 C.3     1  ZINC001328997126   -0.1700
      2 C2        -14.3956    1.8152   48.9744 C.3     1  ZINC001328997126    0.1400
      3 N3        -14.1472    0.4363   49.4023 N.am    1  ZINC001328997126   -0.6300
      4 C4        -14.3578   -0.0891   50.7599 C.3     1  ZINC001328997126    0.0700
      5 C5        -13.9457   -1.5698   50.6483 C.3     1  ZINC001328997126    0.0700
      6 H6        -14.7898   -2.2197   50.8792 H       1  ZINC001328997126    0.1200
      7 C7        -12.7688   -1.8706   51.5785 C.3     1  ZINC001328997126    0.0500
      8 N8        -13.2535   -2.5882   52.7651 N.3     1  ZINC001328997126   -0.5300
      9 C9        -14.1853   -1.7566   53.5395 C.3     1  ZINC001328997126    0.0500
     10 C10       -14.7272   -2.5661   54.7199 C.3     1  ZINC001328997126    0.0600
     11 N11       -13.6066   -3.0162   55.5574 N.3     1  ZINC001328997126   -0.5200
     12 C12       -14.0913   -3.7340   56.7440 C.3     1  ZINC001328997126    0.0400
     13 C13       -13.2270   -3.3873   57.9288 C.2     1  ZINC001328997126    0.5200
     14 O14       -13.7388   -3.0352   58.9704 O.2     1  ZINC001328997126   -0.5100
     15 N15       -11.8853   -3.4685   57.8308 N.am    1  ZINC001328997126   -0.7300
     16 C16       -11.0449   -3.1299   58.9821 C.3     1  ZINC001328997126    0.1600
     17 H17       -11.5290   -3.4638   59.8998 H       1  ZINC001328997126    0.1100
     18 C18        -9.6742   -3.8147   58.8415 C.3     1  ZINC001328997126   -0.1400
     19 C19        -8.7414   -3.1603   59.8930 C.3     1  ZINC001328997126   -0.5800
     20 S20        -9.1603   -1.3820   59.7458 S.o2    1  ZINC001328997126    2.4000
     21 O21        -9.2705   -0.8151   61.0442 O.2     1  ZINC001328997126   -0.9300
     22 O22        -8.3125   -0.7770   58.7790 O.2     1  ZINC001328997126   -0.9300
     23 C23       -10.8292   -1.6042   59.0353 C.3     1  ZINC001328997126   -0.6100
     24 C24       -12.6749   -3.8479   54.7830 C.3     1  ZINC001328997126    0.0500
     25 C25       -12.1330   -3.0384   53.6026 C.3     1  ZINC001328997126    0.0600
     26 O26       -13.5504   -1.7218   49.2543 O.3     1  ZINC001328997126   -0.3100
     27 C27       -13.6966   -0.5535   48.6193 C.2     1  ZINC001328997126    0.6400
     28 O28       -13.4368   -0.4016   47.4421 O.2     1  ZINC001328997126   -0.5200
     29 H29       -12.8350    2.6361   50.2120 H       1  ZINC001328997126    0.0600
     30 H30       -12.3199    2.2165   48.5607 H       1  ZINC001328997126    0.0600
     31 H31       -13.3078    3.6700   48.8424 H       1  ZINC001328997126    0.0700
     32 H32       -15.1988    2.2428   49.5745 H       1  ZINC001328997126    0.0900
     33 H33       -14.6837    1.8231   47.9231 H       1  ZINC001328997126    0.0900
     34 H34       -13.7218    0.4324   51.4752 H       1  ZINC001328997126    0.0900
     35 H35       -15.4063   -0.0039   51.0451 H       1  ZINC001328997126    0.0900
     36 H36       -12.0393   -2.4873   51.0536 H       1  ZINC001328997126    0.0900
     37 H37       -12.3003   -0.9356   51.8857 H       1  ZINC001328997126    0.0600
     38 H38       -13.6627   -0.8756   53.9121 H       1  ZINC001328997126    0.0500
     39 H39       -15.0124   -1.4462   52.9011 H       1  ZINC001328997126    0.0900
     40 H40       -15.3962   -1.9420   55.3123 H       1  ZINC001328997126    0.0800
     41 H41       -15.2730   -3.4326   54.3466 H       1  ZINC001328997126    0.0500
     42 H42       -15.1218   -3.4434   56.9486 H       1  ZINC001328997126    0.1100
     43 H43       -14.0458   -4.8079   56.5628 H       1  ZINC001328997126    0.0700
     44 H44       -11.4760   -3.7512   56.9980 H       1  ZINC001328997126    0.4100
     45 H45        -9.7683   -4.8825   59.0391 H       1  ZINC001328997126    0.1100
     46 H46        -9.2776   -3.6537   57.8390 H       1  ZINC001328997126    0.0900
     47 H47        -8.9672   -3.5294   60.8934 H       1  ZINC001328997126    0.1400
     48 H48        -7.6948   -3.3333   59.6426 H       1  ZINC001328997126    0.1400
     49 H49       -10.8735   -1.1790   58.0326 H       1  ZINC001328997126    0.1400
     50 H50       -11.5785   -1.1411   59.6772 H       1  ZINC001328997126    0.1500
     51 H51       -11.8477   -4.1582   55.4214 H       1  ZINC001328997126    0.1000
     52 H52       -13.1975   -4.7289   54.4104 H       1  ZINC001328997126    0.0400
     53 H53       -11.4640   -3.6625   53.0101 H       1  ZINC001328997126    0.0800
     54 H54       -11.5871   -2.1718   53.9759 H       1  ZINC001328997126    0.0500
@<TRIPOS>BOND
     1     1     2    1
     2     1    29    1
     3     1    30    1
     4     1    31    1
     5     2     3    1
     6     2    32    1
     7     2    33    1
     8     3    27   am
     9     3     4    1
    10     4     5    1
    11     4    34    1
    12     4    35    1
    13     5     6    1
    14     5     7    1
    15     5    26    1
    16     7     8    1
    17     7    36    1
    18     7    37    1
    19     8    25    1
    20     8     9    1
    21     9    10    1
    22     9    38    1
    23     9    39    1
    24    10    11    1
    25    10    40    1
    26    10    41    1
    27    11    12    1
    28    11    24    1
    29    12    13    1
    30    12    42    1
    31    12    43    1
    32    13    14    2
    33    13    15   am
    34    15    16    1
    35    15    44    1
    36    16    17    1
    37    16    23    1
    38    16    18    1
    39    18    19    1
    40    18    45    1
    41    18    46    1
    42    19    20    1
    43    19    47    1
    44    19    48    1
    45    20    21    2
    46    20    22    2
    47    20    23    1
    48    23    49    1
    49    23    50    1
    50    24    25    1
    51    24    51    1
    52    24    52    1
    53    25    53    1
    54    25    54    1
    55    26    27    1
    56    27    28    2
@<TRIPOS>SUBSTRUCTURE
     1 ZINC001328997126        1 TEMP              0 ****  ****    0 ROOT


##########                                Name:    ZINC001181473921
##########                DOCK_Rotatable_Bonds:                   9
##########                         Heavy_Atoms:                  24
##########                    Molecular_Weight:             357.431
##########                DOCK_Rotatable_Bonds:                   9
##########                       Formal_Charge:        -5.96046e-08
##########                     HBond_Acceptors:                   9
##########                        HBond_Donors:                   4
##########                         Heavy_Atoms:                  24
##########                          Grid_Score:          -35.959076
##########                     Grid_vdw_energy:          -32.594128
##########                      Grid_es_energy:           -3.364947
##########           Internal_energy_repulsive:           14.241552

@<TRIPOS>MOLECULE
ZINC001181473921
 47 48 1 0 0
SMALL
USER_CHARGES


@<TRIPOS>ATOM
      1 C1         -9.2842   -2.4990   60.4974 C.3     1  ZINC001181473921   -0.1300
      2 C2         -9.5317   -1.4319   61.5322 C.2     1  ZINC001181473921    0.1900
      3 C3         -8.7244   -1.3503   62.6114 C.2     1  ZINC001181473921   -0.2400
      4 C4         -8.9507   -0.3541   63.5820 C.2     1  ZINC001181473921    0.2500
      5 O5         -8.1492   -0.2591   64.6698 O.3     1  ZINC001181473921   -0.4600
      6 C6        -10.0032    0.5251   63.4065 C.2     1  ZINC001181473921   -0.3700
      7 C7        -10.8127    0.4008   62.2714 C.2     1  ZINC001181473921    0.5300
      8 O8        -11.7461    1.1698   62.1016 O.2     1  ZINC001181473921   -0.5500
      9 N9        -10.5611   -0.5609   61.3640 N.am    1  ZINC001181473921   -0.5000
     10 C10       -11.4176   -0.6773   60.1811 C.3     1  ZINC001181473921    0.1000
     11 C11       -12.6607   -1.4980   60.5303 C.3     1  ZINC001181473921   -0.1600
     12 C12       -13.3518   -1.9275   59.2618 C.2     1  ZINC001181473921    0.5200
     13 O13       -14.2858   -1.2839   58.8323 O.2     1  ZINC001181473921   -0.5300
     14 N14       -12.9320   -3.0267   58.6046 N.am    1  ZINC001181473921   -0.7200
     15 C15       -13.6050   -3.4452   57.3724 C.3     1  ZINC001181473921    0.1400
     16 H16       -14.6447   -3.1178   57.3716 H       1  ZINC001181473921    0.1000
     17 C17       -13.5129   -4.9807   57.1910 C.3     1  ZINC001181473921   -0.1300
     18 C18       -13.6783   -5.1927   55.6720 C.3     1  ZINC001181473921   -0.1500
     19 C19       -13.2602   -3.8751   54.9961 C.3     1  ZINC001181473921   -0.0800
     20 H20       -14.0976   -3.4618   54.4338 H       1  ZINC001181473921    0.0900
     21 C21       -12.0722   -4.1186   54.0632 C.3     1  ZINC001181473921   -0.6200
     22 S22       -11.8543   -2.6841   52.9745 S.o2    1  ZINC001181473921    2.6100
     23 N23       -13.3122   -2.5235   52.2058 N.am    1  ZINC001181473921   -1.2500
     24 O24       -11.7279   -1.4928   53.7387 O.2     1  ZINC001181473921   -0.9600
     25 O25       -10.9389   -2.9852   51.9302 O.2     1  ZINC001181473921   -0.9600
     26 C26       -12.8581   -2.9041   56.1281 C.3     1  ZINC001181473921   -0.1200
     27 H27        -9.1712   -2.0355   59.5173 H       1  ZINC001181473921    0.0900
     28 H28        -8.3745   -3.0445   60.7484 H       1  ZINC001181473921    0.1000
     29 H29       -10.1278   -3.1890   60.4780 H       1  ZINC001181473921    0.0900
     30 H30        -7.9076   -2.0468   62.7304 H       1  ZINC001181473921    0.1500
     31 H31        -7.2071   -0.1994   64.4603 H       1  ZINC001181473921    0.4100
     32 H32       -10.1983    1.2974   64.1359 H       1  ZINC001181473921    0.1500
     33 H33       -11.7194    0.3170   59.8517 H       1  ZINC001181473921    0.1000
     34 H34       -10.8674   -1.1734   59.3815 H       1  ZINC001181473921    0.1100
     35 H35       -12.3660   -2.3795   61.0998 H       1  ZINC001181473921    0.1100
     36 H36       -13.3413   -0.8907   61.1269 H       1  ZINC001181473921    0.1000
     37 H37       -12.1843   -3.5408   58.9474 H       1  ZINC001181473921    0.4000
     38 H38       -12.5414   -5.3465   57.5237 H       1  ZINC001181473921    0.0700
     39 H39       -14.3156   -5.4780   57.7353 H       1  ZINC001181473921    0.0800
     40 H40       -13.0344   -6.0055   55.3360 H       1  ZINC001181473921    0.0900
     41 H41       -14.7186   -5.4189   55.4377 H       1  ZINC001181473921    0.0800
     42 H42       -11.1692   -4.2656   54.6557 H       1  ZINC001181473921    0.1400
     43 H43       -12.2599   -5.0071   53.4603 H       1  ZINC001181473921    0.1400
     44 H44       -13.4448   -1.8107   51.5614 H       1  ZINC001181473921    0.4100
     45 H45       -14.0337   -3.1421   52.3999 H       1  ZINC001181473921    0.4200
     46 H46       -13.1818   -1.8901   55.8938 H       1  ZINC001181473921    0.0800
     47 H47       -11.7807   -2.9335   56.2911 H       1  ZINC001181473921    0.0800
@<TRIPOS>BOND
     1     1     2    1
     2     1    27    1
     3     1    28    1
     4     1    29    1
     5     2     9    1
     6     2     3    2
     7     3     4    1
     8     3    30    1
     9     4     5    1
    10     4     6    2
    11     5    31    1
    12     6     7    1
    13     6    32    1
    14     7     8    2
    15     7     9   am
    16     9    10    1
    17    10    11    1
    18    10    33    1
    19    10    34    1
    20    11    12    1
    21    11    35    1
    22    11    36    1
    23    12    13    2
    24    12    14   am
    25    14    15    1
    26    14    37    1
    27    15    16    1
    28    15    26    1
    29    15    17    1
    30    17    18    1
    31    17    38    1
    32    17    39    1
    33    18    19    1
    34    18    40    1
    35    18    41    1
    36    19    20    1
    37    19    21    1
    38    19    26    1
    39    21    22    1
    40    21    42    1
    41    21    43    1
    42    22    23   am
    43    22    24    2
    44    22    25    2
    45    23    44    1
    46    23    45    1
    47    26    46    1
    48    26    47    1
@<TRIPOS>SUBSTRUCTURE
     1 ZINC001181473921        1 TEMP              0 ****  ****    0 ROOT


##########                                Name:    ZINC000498646479
##########                DOCK_Rotatable_Bonds:                   7
##########                         Heavy_Atoms:                  29
##########                    Molecular_Weight:              407.58
##########                DOCK_Rotatable_Bonds:                   7
##########                       Formal_Charge:          -0.0199997
##########                     HBond_Acceptors:                   5
##########                        HBond_Donors:                   0
##########                         Heavy_Atoms:                  29
##########                          Grid_Score:          -35.955360
##########                     Grid_vdw_energy:          -35.476727
##########                      Grid_es_energy:           -0.478632
##########           Internal_energy_repulsive:           31.479380

@<TRIPOS>MOLECULE
ZINC000498646479
 58 61 1 0 0
SMALL
USER_CHARGES


@<TRIPOS>ATOM
      1 C1        -16.4672   -2.4714   46.2835 C.3     1  ZINC000498646479   -0.1500
      2 C2        -15.5562   -3.2475   47.2367 C.3     1  ZINC000498646479   -0.0600
      3 C3        -15.1791   -2.3665   48.3998 C.2     1  ZINC000498646479   -0.1700
      4 C4        -15.8604   -2.2681   49.5423 C.2     1  ZINC000498646479   -0.1400
      5 C5        -15.3213   -1.3927   50.4693 C.2     1  ZINC000498646479   -0.1300
      6 C6        -14.2022   -0.7803   50.0795 C.2     1  ZINC000498646479   -0.1900
      7 C7        -13.4242    0.2138   50.9024 C.3     1  ZINC000498646479    0.1300
      8 N8        -12.7019   -0.4921   51.9691 N.3     1  ZINC000498646479   -0.5300
      9 C9        -12.4761   -1.8986   51.6104 C.3     1  ZINC000498646479    0.0400
     10 C10       -11.5683   -2.5504   52.6589 C.3     1  ZINC000498646479    0.1200
     11 N11       -12.1601   -2.3348   53.9881 N.am    1  ZINC000498646479   -0.6100
     12 C12       -12.3480   -3.3647   54.8369 C.2     1  ZINC000498646479    0.5200
     13 O13       -12.0277   -4.4874   54.5085 O.2     1  ZINC000498646479   -0.5400
     14 C14       -12.9560   -3.1211   56.1941 C.3     1  ZINC000498646479   -0.1000
     15 H15       -12.5666   -2.1897   56.6049 H       1  ZINC000498646479    0.0900
     16 C16       -14.4772   -3.0235   56.0614 C.3     1  ZINC000498646479   -0.1500
     17 C17       -12.5989   -4.2791   57.1281 C.3     1  ZINC000498646479   -0.0600
     18 C18       -11.4277   -3.8856   57.9910 C.ar    1  ZINC000498646479   -0.1200
     19 C19       -11.6051   -3.0345   59.0966 C.ar    1  ZINC000498646479   -0.0200
     20 C20       -12.8600   -2.5166   59.4481 C.ar    1  ZINC000498646479   -0.1200
     21 C21       -12.9678   -1.6972   60.5308 C.ar    1  ZINC000498646479   -0.1000
     22 C22       -11.8500   -1.3649   61.2943 C.ar    1  ZINC000498646479   -0.1200
     23 C23       -10.6162   -1.8492   60.9824 C.ar    1  ZINC000498646479   -0.0900
     24 C24       -10.4661   -2.6972   59.8737 C.ar    1  ZINC000498646479   -0.1100
     25 C25        -9.2198   -3.2274   59.5038 C.ar    1  ZINC000498646479    0.1400
     26 N26        -9.1290   -4.0167   58.4589 N.ar    1  ZINC000498646479   -0.4800
     27 C27       -10.1770   -4.3516   57.7192 C.ar    1  ZINC000498646479    0.0800
     28 C28       -12.5410   -0.9655   54.3664 C.3     1  ZINC000498646479    0.1100
     29 C29       -13.4104   -0.3762   53.2506 C.3     1  ZINC000498646479    0.0400
     30 S30       -13.7693   -1.3168   48.4613 S.3     1  ZINC000498646479    0.1300
     31 H31       -16.7399   -3.1085   45.4422 H       1  ZINC000498646479    0.0600
     32 H32       -17.3687   -2.1631   46.8130 H       1  ZINC000498646479    0.0600
     33 H33       -15.9420   -1.5897   45.9161 H       1  ZINC000498646479    0.0600
     34 H34       -16.0813   -4.1292   47.6040 H       1  ZINC000498646479    0.0800
     35 H35       -14.6547   -3.5559   46.7072 H       1  ZINC000498646479    0.0700
     36 H36       -16.7643   -2.8286   49.7299 H       1  ZINC000498646479    0.1400
     37 H37       -15.7728   -1.2185   51.4348 H       1  ZINC000498646479    0.1300
     38 H38       -12.7108    0.7348   50.2638 H       1  ZINC000498646479    0.0900
     39 H39       -14.1107    0.9358   51.3447 H       1  ZINC000498646479    0.0500
     40 H40       -13.4307   -2.4237   51.5790 H       1  ZINC000498646479    0.0400
     41 H41       -11.9986   -1.9523   50.6320 H       1  ZINC000498646479    0.1000
     42 H42       -11.4903   -3.6196   52.4619 H       1  ZINC000498646479    0.1000
     43 H43       -10.5788   -2.0949   52.6204 H       1  ZINC000498646479    0.0800
     44 H44       -14.9103   -2.7642   57.0275 H       1  ZINC000498646479    0.0700
     45 H45       -14.7295   -2.2540   55.3318 H       1  ZINC000498646479    0.0600
     46 H46       -14.8754   -3.9826   55.7303 H       1  ZINC000498646479    0.0700
     47 H47       -13.4548   -4.5122   57.7617 H       1  ZINC000498646479    0.0900
     48 H48       -12.3357   -5.1556   56.5360 H       1  ZINC000498646479    0.0800
     49 H49       -13.7343   -2.7654   58.8648 H       1  ZINC000498646479    0.1400
     50 H50       -13.9342   -1.2984   60.8017 H       1  ZINC000498646479    0.1300
     51 H51       -11.9643   -0.7124   62.1472 H       1  ZINC000498646479    0.1300
     52 H52        -9.7594   -1.5829   61.5834 H       1  ZINC000498646479    0.1300
     53 H53        -8.3374   -2.9860   60.0778 H       1  ZINC000498646479    0.1600
     54 H54       -10.0336   -5.0059   56.8720 H       1  ZINC000498646479    0.1500
     55 H55       -13.1060   -0.9869   55.2983 H       1  ZINC000498646479    0.0900
     56 H56       -11.6449   -0.3577   54.4921 H       1  ZINC000498646479    0.0800
     57 H57       -13.6105    0.6743   53.4619 H       1  ZINC000498646479    0.0900
     58 H58       -14.3521   -0.9225   53.1964 H       1  ZINC000498646479    0.0400
@<TRIPOS>BOND
     1     1     2    1
     2     1    31    1
     3     1    32    1
     4     1    33    1
     5     2     3    1
     6     2    34    1
     7     2    35    1
     8     3    30    1
     9     3     4    2
    10     4     5    1
    11     4    36    1
    12     5     6    2
    13     5    37    1
    14     6     7    1
    15     6    30    1
    16     7     8    1
    17     7    38    1
    18     7    39    1
    19     8    29    1
    20     8     9    1
    21     9    10    1
    22     9    40    1
    23     9    41    1
    24    10    11    1
    25    10    42    1
    26    10    43    1
    27    11    12   am
    28    11    28    1
    29    12    13    2
    30    12    14    1
    31    14    15    1
    32    14    16    1
    33    14    17    1
    34    16    44    1
    35    16    45    1
    36    16    46    1
    37    17    18    1
    38    17    47    1
    39    17    48    1
    40    18    27   ar
    41    18    19   ar
    42    19    24   ar
    43    19    20   ar
    44    20    21   ar
    45    20    49    1
    46    21    22   ar
    47    21    50    1
    48    22    23   ar
    49    22    51    1
    50    23    24   ar
    51    23    52    1
    52    24    25   ar
    53    25    26   ar
    54    25    53    1
    55    26    27   ar
    56    27    54    1
    57    28    29    1
    58    28    55    1
    59    28    56    1
    60    29    57    1
    61    29    58    1
@<TRIPOS>SUBSTRUCTURE
     1 ZINC000498646479        1 TEMP              0 ****  ****    0 ROOT


##########                                Name:    ZINC001386869844
##########                DOCK_Rotatable_Bonds:                   9
##########                         Heavy_Atoms:                  25
##########                    Molecular_Weight:             345.485
##########                DOCK_Rotatable_Bonds:                   9
##########                       Formal_Charge:          -0.0300003
##########                     HBond_Acceptors:                   5
##########                        HBond_Donors:                   2
##########                         Heavy_Atoms:                  25
##########                          Grid_Score:          -35.942287
##########                     Grid_vdw_energy:          -34.989841
##########                      Grid_es_energy:           -0.952446
##########           Internal_energy_repulsive:           29.788740

@<TRIPOS>MOLECULE
ZINC001386869844
 56 58 1 0 0
SMALL
USER_CHARGES


@<TRIPOS>ATOM
      1 C1         -9.5321    0.6695   60.1950 C.3     1  ZINC001386869844    0.0600
      2 N2         -9.2579   -0.7629   60.3344 N.am    1  ZINC001386869844   -0.6200
      3 C3         -9.0947   -1.5968   59.1410 C.3     1  ZINC001386869844    0.1100
      4 C4        -10.3438   -2.4587   58.9464 C.3     1  ZINC001386869844    0.1000
      5 N5        -10.3601   -2.9939   57.5828 N.am    1  ZINC001386869844   -0.7300
      6 C6        -11.5333   -3.1796   56.9457 C.2     1  ZINC001386869844    0.5200
      7 O7        -12.5756   -2.9084   57.5033 O.2     1  ZINC001386869844   -0.5300
      8 C8        -11.5500   -3.7302   55.5430 C.3     1  ZINC001386869844   -0.1300
      9 C9        -12.0119   -2.6408   54.5731 C.3     1  ZINC001386869844   -0.0100
     10 C10       -13.5408   -2.6182   54.5219 C.3     1  ZINC001386869844   -0.1500
     11 C11       -11.4974   -1.2813   55.0507 C.3     1  ZINC001386869844   -0.1600
     12 C12       -11.4590   -2.9334   53.1768 C.3     1  ZINC001386869844   -0.1500
     13 C13       -10.4212   -1.9625   52.6101 C.3     1  ZINC001386869844   -0.1900
     14 C14       -11.8453   -1.9744   52.0488 C.3     1  ZINC001386869844   -0.1800
     15 C15        -9.1558   -1.3134   61.5603 C.2     1  ZINC001386869844    0.5900
     16 O16        -8.9281   -2.5031   61.6761 O.2     1  ZINC001386869844   -0.5200
     17 C17        -9.3192   -0.4782   62.7551 C.2     1  ZINC001386869844   -0.0600
     18 C18       -10.4739    0.1705   63.1447 C.2     1  ZINC001386869844   -0.0900
     19 C19       -10.1826    0.8432   64.3286 C.2     1  ZINC001386869844   -0.1700
     20 C20        -8.8811    0.6029   64.6400 C.2     1  ZINC001386869844    0.0500
     21 C21        -8.1897    1.1669   65.8585 C.3     1  ZINC001386869844   -0.0600
     22 C22        -9.0320    2.3285   66.3989 C.3     1  ZINC001386869844   -0.1100
     23 C23       -10.4882    1.8792   66.5466 C.3     1  ZINC001386869844   -0.1200
     24 C24       -11.1101    1.6971   65.1567 C.3     1  ZINC001386869844   -0.0500
     25 N25        -8.3500   -0.2039   63.6953 N.pl3   1  ZINC001386869844   -0.5400
     26 H26       -10.6057    0.8428   60.2695 H       1  ZINC001386869844    0.0600
     27 H27        -9.0200    1.2161   60.9869 H       1  ZINC001386869844    0.0800
     28 H28        -9.1747    1.0152   59.2251 H       1  ZINC001386869844    0.0900
     29 H29        -8.2242   -2.2412   59.2644 H       1  ZINC001386869844    0.1000
     30 H30        -8.9538   -0.9590   58.2685 H       1  ZINC001386869844    0.0900
     31 H31       -11.2336   -1.8505   59.1086 H       1  ZINC001386869844    0.0700
     32 H32       -10.3315   -3.2825   59.6600 H       1  ZINC001386869844    0.0700
     33 H33        -9.5266   -3.2148   57.1384 H       1  ZINC001386869844    0.4000
     34 H34       -10.5474   -4.0588   55.2696 H       1  ZINC001386869844    0.0900
     35 H35       -12.2359   -4.5759   55.4927 H       1  ZINC001386869844    0.0900
     36 H36       -13.9346   -2.4098   55.5166 H       1  ZINC001386869844    0.0800
     37 H37       -13.8697   -1.8420   53.8309 H       1  ZINC001386869844    0.0500
     38 H38       -13.9074   -3.5867   54.1817 H       1  ZINC001386869844    0.0500
     39 H39       -10.4082   -1.2974   55.0872 H       1  ZINC001386869844    0.0500
     40 H40       -11.8263   -0.5051   54.3597 H       1  ZINC001386869844    0.0500
     41 H41       -11.8912   -1.0729   56.0454 H       1  ZINC001386869844    0.0800
     42 H42       -11.3511   -3.9885   52.9254 H       1  ZINC001386869844    0.1000
     43 H43       -10.1323   -1.1152   53.2320 H       1  ZINC001386869844    0.1000
     44 H44        -9.6307   -2.3788   51.9857 H       1  ZINC001386869844    0.0900
     45 H45       -11.9911   -2.3987   51.0554 H       1  ZINC001386869844    0.0900
     46 H46       -12.4932   -1.1352   52.3015 H       1  ZINC001386869844    0.0900
     47 H47       -11.4228    0.1588   62.6290 H       1  ZINC001386869844    0.1500
     48 H48        -8.1000    0.3929   66.6208 H       1  ZINC001386869844    0.0800
     49 H49        -7.1989    1.5288   65.5837 H       1  ZINC001386869844    0.0800
     50 H50        -8.6463    2.6354   67.3710 H       1  ZINC001386869844    0.0700
     51 H51        -8.9796    3.1682   65.7059 H       1  ZINC001386869844    0.0700
     52 H52       -10.5237    0.9335   67.0873 H       1  ZINC001386869844    0.0600
     53 H53       -11.0473    2.6346   67.0987 H       1  ZINC001386869844    0.0700
     54 H54       -11.2368    2.6695   64.6809 H       1  ZINC001386869844    0.0700
     55 H55       -12.0781    1.2044   65.2493 H       1  ZINC001386869844    0.0700
     56 H56        -7.4377   -0.5334   63.6803 H       1  ZINC001386869844    0.4200
@<TRIPOS>BOND
     1     1     2    1
     2     1    26    1
     3     1    27    1
     4     1    28    1
     5     2     3    1
     6     2    15   am
     7     3     4    1
     8     3    29    1
     9     3    30    1
    10     4     5    1
    11     4    31    1
    12     4    32    1
    13     5     6   am
    14     5    33    1
    15     6     7    2
    16     6     8    1
    17     8     9    1
    18     8    34    1
    19     8    35    1
    20     9    10    1
    21     9    11    1
    22     9    12    1
    23    10    36    1
    24    10    37    1
    25    10    38    1
    26    11    39    1
    27    11    40    1
    28    11    41    1
    29    12    14    1
    30    12    13    1
    31    12    42    1
    32    13    14    1
    33    13    43    1
    34    13    44    1
    35    14    45    1
    36    14    46    1
    37    15    16    2
    38    15    17    1
    39    17    25    1
    40    17    18    2
    41    18    19    1
    42    18    47    1
    43    19    24    1
    44    19    20    2
    45    20    21    1
    46    20    25    1
    47    21    22    1
    48    21    48    1
    49    21    49    1
    50    22    23    1
    51    22    50    1
    52    22    51    1
    53    23    24    1
    54    23    52    1
    55    23    53    1
    56    24    54    1
    57    24    55    1
    58    25    56    1
@<TRIPOS>SUBSTRUCTURE
     1 ZINC001386869844        1 TEMP              0 ****  ****    0 ROOT


##########                                Name:    ZINC000918875053
##########                DOCK_Rotatable_Bonds:                   6
##########                         Heavy_Atoms:                  26
##########                    Molecular_Weight:             359.357
##########                DOCK_Rotatable_Bonds:                   6
##########                       Formal_Charge:           0.0200003
##########                     HBond_Acceptors:                   8
##########                        HBond_Donors:                   0
##########                         Heavy_Atoms:                  26
##########                          Grid_Score:          -35.890976
##########                     Grid_vdw_energy:          -34.610744
##########                      Grid_es_energy:           -1.280231
##########           Internal_energy_repulsive:            8.432759

@<TRIPOS>MOLECULE
ZINC000918875053
 44 47 1 0 0
SMALL
USER_CHARGES


@<TRIPOS>ATOM
      1 C1        -13.5412   -1.0260   50.7631 C.3     1  ZINC000918875053   -0.1700
      2 C2        -13.0266   -1.5483   52.1061 C.3     1  ZINC000918875053    0.1900
      3 H3        -13.5213   -1.0141   52.9173 H       1  ZINC000918875053    0.1400
      4 O4        -13.3133   -2.9676   52.2154 O.3     1  ZINC000918875053   -0.3400
      5 C5        -12.6862   -3.6424   53.1918 C.2     1  ZINC000918875053    0.4800
      6 O6        -11.9231   -4.5370   52.9139 O.2     1  ZINC000918875053   -0.4900
      7 C7        -12.9342   -3.2843   54.6344 C.3     1  ZINC000918875053   -0.0900
      8 H8        -13.5427   -2.3833   54.7116 H       1  ZINC000918875053    0.1400
      9 C9        -13.5906   -4.4618   55.3919 C.3     1  ZINC000918875053   -0.1400
     10 C10       -12.9633   -4.4137   56.7676 C.2     1  ZINC000918875053    0.5300
     11 O11       -13.3963   -4.9802   57.7488 O.2     1  ZINC000918875053   -0.5000
     12 N12       -11.8559   -3.6521   56.7444 N.am    1  ZINC000918875053   -0.5800
     13 C13       -11.0478   -3.3984   57.8597 C.ar    1  ZINC000918875053    0.1000
     14 C14       -11.1660   -2.1978   58.5455 C.ar    1  ZINC000918875053   -0.0800
     15 C15       -10.3677   -1.9503   59.6459 C.ar    1  ZINC000918875053   -0.1200
     16 C16        -9.4512   -2.8965   60.0648 C.ar    1  ZINC000918875053   -0.0800
     17 C17        -9.3295   -4.0948   59.3847 C.ar    1  ZINC000918875053   -0.1500
     18 C18       -10.1290   -4.3516   58.2862 C.ar    1  ZINC000918875053    0.1100
     19 F19       -10.0107   -5.5221   57.6221 F       1  ZINC000918875053   -0.1300
     20 C20       -11.6026   -3.1195   55.3998 C.3     1  ZINC000918875053    0.1200
     21 C21       -11.5384   -1.3283   52.1937 C.2     1  ZINC000918875053    0.1800
     22 N22       -10.9319   -0.2885   52.7138 N.2     1  ZINC000918875053   -0.4600
     23 C23        -9.6161   -0.5275   52.5702 C.2     1  ZINC000918875053    0.2100
     24 C24        -8.4925    0.3743   53.0119 C.3     1  ZINC000918875053   -0.0900
     25 C25        -8.6798    1.8810   52.8228 C.3     1  ZINC000918875053   -0.1600
     26 C26        -8.7427    1.2723   54.2251 C.3     1  ZINC000918875053   -0.1500
     27 N27        -9.4919   -1.6790   51.9810 N.2     1  ZINC000918875053   -0.3700
     28 O28       -10.5843   -2.1583   51.7613 O.3     1  ZINC000918875053    0.1000
     29 H29       -14.6177   -1.1852   50.6997 H       1  ZINC000918875053    0.0900
     30 H30       -13.3259    0.0393   50.6811 H       1  ZINC000918875053    0.0900
     31 H31       -13.0465   -1.5602   49.9519 H       1  ZINC000918875053    0.0800
     32 H32       -14.6690   -4.3183   55.4591 H       1  ZINC000918875053    0.1300
     33 H33       -13.3605   -5.4072   54.9005 H       1  ZINC000918875053    0.1100
     34 H34       -11.8811   -1.4571   58.2191 H       1  ZINC000918875053    0.1400
     35 H35       -10.4599   -1.0158   60.1795 H       1  ZINC000918875053    0.1400
     36 H36        -8.8284   -2.6996   60.9248 H       1  ZINC000918875053    0.1400
     37 H37        -8.6125   -4.8320   59.7145 H       1  ZINC000918875053    0.1400
     38 H38       -10.8136   -3.6905   54.9104 H       1  ZINC000918875053    0.1000
     39 H39       -11.3270   -2.0665   55.4571 H       1  ZINC000918875053    0.1000
     40 H40        -7.4879   -0.0284   52.8824 H       1  ZINC000918875053    0.1400
     41 H41        -7.7985    2.4698   52.5687 H       1  ZINC000918875053    0.1100
     42 H42        -9.6159    2.2199   52.3789 H       1  ZINC000918875053    0.1000
     43 H43        -9.7200    1.2108   54.7038 H       1  ZINC000918875053    0.1000
     44 H44        -7.9025    1.4607   54.8935 H       1  ZINC000918875053    0.1100
@<TRIPOS>BOND
     1     1     2    1
     2     1    29    1
     3     1    30    1
     4     1    31    1
     5     2     3    1
     6     2     4    1
     7     2    21    1
     8     4     5    1
     9     5     6    2
    10     5     7    1
    11     7     8    1
    12     7    20    1
    13     7     9    1
    14     9    10    1
    15     9    32    1
    16     9    33    1
    17    10    11    2
    18    10    12   am
    19    12    13    1
    20    12    20    1
    21    13    18   ar
    22    13    14   ar
    23    14    15   ar
    24    14    34    1
    25    15    16   ar
    26    15    35    1
    27    16    17   ar
    28    16    36    1
    29    17    18   ar
    30    17    37    1
    31    18    19    1
    32    20    38    1
    33    20    39    1
    34    21    28    1
    35    21    22    2
    36    22    23    1
    37    23    24    1
    38    23    27    2
    39    24    26    1
    40    24    25    1
    41    24    40    1
    42    25    26    1
    43    25    41    1
    44    25    42    1
    45    26    43    1
    46    26    44    1
    47    27    28    1
@<TRIPOS>SUBSTRUCTURE
     1 ZINC000918875053        1 TEMP              0 ****  ****    0 ROOT


##########                                Name:    ZINC000466160459
##########                DOCK_Rotatable_Bonds:                   9
##########                         Heavy_Atoms:                  30
##########                    Molecular_Weight:             420.512
##########                DOCK_Rotatable_Bonds:                   9
##########                       Formal_Charge:          -0.0300007
##########                     HBond_Acceptors:                  10
##########                        HBond_Donors:                   2
##########                         Heavy_Atoms:                  30
##########                          Grid_Score:          -35.854427
##########                     Grid_vdw_energy:          -35.963459
##########                      Grid_es_energy:            0.109030
##########           Internal_energy_repulsive:           99.534126

@<TRIPOS>MOLECULE
ZINC000466160459
 62 64 1 0 0
SMALL
USER_CHARGES


@<TRIPOS>ATOM
      1 C1         -7.6073   -0.6889   51.8443 C.3     1  ZINC000466160459    0.0300
      2 O2         -8.9614   -0.9730   52.2018 O.3     1  ZINC000466160459   -0.3900
      3 C3         -9.5808    0.0463   52.9889 C.3     1  ZINC000466160459    0.0500
      4 C4        -11.0176   -0.3651   53.3167 C.3     1  ZINC000466160459    0.1200
      5 N5        -11.0076   -1.6373   54.0430 N.am    1  ZINC000466160459   -0.7300
      6 C6        -11.6987   -2.6913   53.5656 C.2     1  ZINC000466160459    0.5200
      7 O7        -12.3277   -2.5869   52.5339 O.2     1  ZINC000466160459   -0.5200
      8 C8        -11.6899   -3.9995   54.3136 C.3     1  ZINC000466160459   -0.1300
      9 H9        -10.7984   -4.5662   54.0450 H       1  ZINC000466160459    0.1100
     10 C10       -12.9378   -4.8060   53.9469 C.3     1  ZINC000466160459   -0.1000
     11 C11       -14.1900   -3.9971   54.2929 C.3     1  ZINC000466160459   -0.1500
     12 C12       -14.2164   -3.7241   55.8001 C.3     1  ZINC000466160459    0.1600
     13 H13       -14.3250   -4.6647   56.3399 H       1  ZINC000466160459    0.0700
     14 C14       -15.3913   -2.8027   56.1338 C.3     1  ZINC000466160459   -0.1400
     15 N15       -12.9547   -3.0775   56.1857 N.am    1  ZINC000466160459   -0.6200
     16 C16       -12.9593   -1.9114   56.8615 C.2     1  ZINC000466160459    0.7100
     17 O17       -14.0142   -1.3846   57.1578 O.2     1  ZINC000466160459   -0.5500
     18 N18       -11.7944   -1.3293   57.2089 N.am    1  ZINC000466160459   -0.7300
     19 C19       -11.7993   -0.0618   57.9435 C.3     1  ZINC000466160459    0.1600
     20 H20       -12.8257    0.2869   58.0568 H       1  ZINC000466160459    0.1300
     21 C21       -10.9912    0.9798   57.1657 C.3     1  ZINC000466160459   -0.1400
     22 C22        -9.5063    0.6083   57.2570 C.3     1  ZINC000466160459   -0.1400
     23 C23        -9.0450    0.7866   58.7040 C.3     1  ZINC000466160459    0.1100
     24 N24        -9.9497    0.0983   59.6163 N.am    1  ZINC000466160459   -0.5200
     25 C25        -9.4849   -0.1946   60.9057 C.2     1  ZINC000466160459    0.2800
     26 N26        -9.4983    0.6210   61.9336 N.2     1  ZINC000466160459   -0.2600
     27 N27        -8.9476   -0.0516   63.0320 N.pl3   1  ZINC000466160459   -0.3800
     28 C28        -8.7754    0.4974   64.3793 C.3     1  ZINC000466160459    0.1000
     29 C29        -8.6038   -1.2940   62.6322 C.2     1  ZINC000466160459    0.0700
     30 C30        -8.9292   -1.4139   61.3250 C.2     1  ZINC000466160459   -0.2900
     31 C31       -11.1902   -0.2694   59.3004 C.2     1  ZINC000466160459    0.4900
     32 O32       -11.8668   -0.8005   60.1556 O.2     1  ZINC000466160459   -0.4700
     33 C33       -11.6872   -3.7264   55.8210 C.3     1  ZINC000466160459    0.1200
     34 H34        -7.2089   -1.5100   51.2483 H       1  ZINC000466160459    0.0900
     35 H35        -7.5705    0.2327   51.2636 H       1  ZINC000466160459    0.0400
     36 H36        -7.0096   -0.5728   52.7484 H       1  ZINC000466160459    0.0400
     37 H37        -9.0213    0.1810   53.9145 H       1  ZINC000466160459    0.0600
     38 H38        -9.5894    0.9820   52.4299 H       1  ZINC000466160459    0.0700
     39 H39       -11.4832    0.4025   53.9349 H       1  ZINC000466160459    0.0800
     40 H40       -11.5829   -0.4791   52.3918 H       1  ZINC000466160459    0.0800
     41 H41       -10.5036   -1.7212   54.8675 H       1  ZINC000466160459    0.4000
     42 H42       -12.9291   -5.0227   52.8787 H       1  ZINC000466160459    0.0700
     43 H43       -12.9433   -5.7411   54.5069 H       1  ZINC000466160459    0.0700
     44 H44       -14.1728   -3.0509   53.7520 H       1  ZINC000466160459    0.1000
     45 H45       -15.0779   -4.5624   54.0099 H       1  ZINC000466160459    0.0700
     46 H46       -16.3140   -3.2360   55.7477 H       1  ZINC000466160459    0.0400
     47 H47       -15.4681   -2.6890   57.2152 H       1  ZINC000466160459    0.0800
     48 H48       -15.2290   -1.8267   55.6764 H       1  ZINC000466160459    0.0600
     49 H49       -10.9527   -1.7497   56.9726 H       1  ZINC000466160459    0.3900
     50 H50       -11.3051    0.9831   56.1218 H       1  ZINC000466160459    0.0900
     51 H51       -11.1500    1.9667   57.6002 H       1  ZINC000466160459    0.0900
     52 H52        -9.3699   -0.4301   56.9550 H       1  ZINC000466160459    0.0700
     53 H53        -8.9253    1.2606   56.6050 H       1  ZINC000466160459    0.1000
     54 H54        -8.0410    0.3772   58.8152 H       1  ZINC000466160459    0.0900
     55 H55        -9.0267    1.8487   58.9481 H       1  ZINC000466160459    0.0800
     56 H56        -9.6667    0.2918   64.9721 H       1  ZINC000466160459    0.0700
     57 H57        -7.9095    0.0341   64.8525 H       1  ZINC000466160459    0.0900
     58 H58        -8.6217    1.5746   64.3159 H       1  ZINC000466160459    0.0900
     59 H59        -8.1529   -2.0582   63.2479 H       1  ZINC000466160459    0.1800
     60 H60        -8.7808   -2.2897   60.7105 H       1  ZINC000466160459    0.1500
     61 H61       -11.5894   -4.6673   56.3627 H       1  ZINC000466160459    0.0900
     62 H62       -10.8546   -3.0694   56.0725 H       1  ZINC000466160459    0.0700
@<TRIPOS>BOND
     1     1     2    1
     2     1    34    1
     3     1    35    1
     4     1    36    1
     5     2     3    1
     6     3     4    1
     7     3    37    1
     8     3    38    1
     9     4     5    1
    10     4    39    1
    11     4    40    1
    12     5     6   am
    13     5    41    1
    14     6     7    2
    15     6     8    1
    16     8     9    1
    17     8    33    1
    18     8    10    1
    19    10    11    1
    20    10    42    1
    21    10    43    1
    22    11    12    1
    23    11    44    1
    24    11    45    1
    25    12    13    1
    26    12    14    1
    27    12    15    1
    28    14    46    1
    29    14    47    1
    30    14    48    1
    31    15    16   am
    32    15    33    1
    33    16    17    2
    34    16    18   am
    35    18    19    1
    36    18    49    1
    37    19    20    1
    38    19    31    1
    39    19    21    1
    40    21    22    1
    41    21    50    1
    42    21    51    1
    43    22    23    1
    44    22    52    1
    45    22    53    1
    46    23    24    1
    47    23    54    1
    48    23    55    1
    49    24    25    1
    50    24    31   am
    51    25    30    1
    52    25    26    2
    53    26    27    1
    54    27    28    1
    55    27    29    1
    56    28    56    1
    57    28    57    1
    58    28    58    1
    59    29    30    2
    60    29    59    1
    61    30    60    1
    62    31    32    2
    63    33    61    1
    64    33    62    1
@<TRIPOS>SUBSTRUCTURE
     1 ZINC000466160459        1 TEMP              0 ****  ****    0 ROOT


##########                                Name:    ZINC000668548901
##########                DOCK_Rotatable_Bonds:                   9
##########                         Heavy_Atoms:                  26
##########                    Molecular_Weight:             374.464
##########                DOCK_Rotatable_Bonds:                   9
##########                       Formal_Charge:         3.53903e-07
##########                     HBond_Acceptors:                   8
##########                        HBond_Donors:                   3
##########                         Heavy_Atoms:                  26
##########                          Grid_Score:          -35.836391
##########                     Grid_vdw_energy:          -33.350349
##########                      Grid_es_energy:           -2.486042
##########           Internal_energy_repulsive:           10.192490

@<TRIPOS>MOLECULE
ZINC000668548901
 48 50 1 0 0
SMALL
USER_CHARGES


@<TRIPOS>ATOM
      1 O1        -10.8672   -1.0794   61.8025 O.2     1  ZINC000668548901   -0.5700
      2 C2         -9.8546   -0.4658   61.5265 C.2     1  ZINC000668548901    0.7100
      3 N3         -9.1498   -0.7895   60.4242 N.am    1  ZINC000668548901   -0.6800
      4 C4         -9.5794   -1.8328   59.6027 C.ar    1  ZINC000668548901    0.2200
      5 C5         -8.8329   -3.0067   59.4882 C.ar    1  ZINC000668548901   -0.1700
      6 C6         -9.2875   -4.0164   58.6672 C.ar    1  ZINC000668548901    0.1200
      7 N7        -10.4142   -3.8863   57.9918 N.ar    1  ZINC000668548901   -0.4300
      8 C8        -11.1534   -2.7887   58.0715 C.ar    1  ZINC000668548901    0.1100
      9 S9        -12.6483   -2.6749   57.1457 S.3     1  ZINC000668548901    0.0900
     10 C10       -12.1278   -3.0501   55.5047 C.ar    1  ZINC000668548901    0.0900
     11 C11       -11.0835   -2.3317   54.9314 C.ar    1  ZINC000668548901   -0.1500
     12 C12       -10.6849   -2.6372   53.6424 C.ar    1  ZINC000668548901   -0.0700
     13 C13       -11.3465   -3.6545   52.9676 C.ar    1  ZINC000668548901   -0.1700
     14 C14       -12.3752   -4.3267   53.5977 C.ar    1  ZINC000668548901    0.1000
     15 N15       -12.7308   -4.0174   54.8298 N.ar    1  ZINC000668548901   -0.4200
     16 C16       -10.7648   -1.7306   58.8822 C.ar    1  ZINC000668548901   -0.1800
     17 N17        -9.4398    0.5417   62.3198 N.am    1  ZINC000668548901   -0.7200
     18 C18       -10.2058    0.8936   63.5179 C.3     1  ZINC000668548901    0.1700
     19 H19       -10.6435   -0.0078   63.9470 H       1  ZINC000668548901    0.1000
     20 C20       -11.3200    1.8723   63.1417 C.3     1  ZINC000668548901    0.0600
     21 O21       -10.7477    3.0426   62.5543 O.3     1  ZINC000668548901   -0.5700
     22 C22        -9.2772    1.5474   64.5432 C.3     1  ZINC000668548901   -0.1300
     23 H23        -8.8373    2.4477   64.1141 H       1  ZINC000668548901    0.1000
     24 C24        -8.1649    0.5662   64.9254 C.3     1  ZINC000668548901   -0.1200
     25 C25        -7.2880    1.2022   66.0084 C.3     1  ZINC000668548901   -0.1600
     26 C26        -8.1640    1.5823   67.2051 C.3     1  ZINC000668548901    0.0600
     27 O27        -9.1963    2.4717   66.7746 O.3     1  ZINC000668548901   -0.3800
     28 C28       -10.0767    1.9157   65.7958 C.3     1  ZINC000668548901    0.0700
     29 H29        -8.3441   -0.2974   60.2019 H       1  ZINC000668548901    0.4100
     30 H30        -7.9094   -3.1224   60.0362 H       1  ZINC000668548901    0.1500
     31 H31        -8.7137   -4.9268   58.5752 H       1  ZINC000668548901    0.1600
     32 H32       -10.5909   -1.5461   55.4849 H       1  ZINC000668548901    0.1400
     33 H33        -9.8775   -2.0963   53.1713 H       1  ZINC000668548901    0.1400
     34 H34       -11.0597   -3.9172   51.9601 H       1  ZINC000668548901    0.1400
     35 H35       -12.8927   -5.1184   53.0763 H       1  ZINC000668548901    0.1600
     36 H36       -11.3691   -0.8377   58.9452 H       1  ZINC000668548901    0.1400
     37 H37        -8.6340    1.0338   62.0974 H       1  ZINC000668548901    0.4000
     38 H38       -11.9933    1.3991   62.4269 H       1  ZINC000668548901    0.0500
     39 H39       -11.8770    2.1501   64.0365 H       1  ZINC000668548901    0.0600
     40 H40       -10.1360    3.5153   63.1352 H       1  ZINC000668548901    0.3800
     41 H41        -8.6061   -0.3544   65.3075 H       1  ZINC000668548901    0.0700
     42 H42        -7.5573    0.3441   64.0481 H       1  ZINC000668548901    0.0700
     43 H43        -6.5269    0.4894   66.3260 H       1  ZINC000668548901    0.0800
     44 H44        -6.8078    2.0958   65.6101 H       1  ZINC000668548901    0.0700
     45 H45        -8.6119    0.6831   67.6280 H       1  ZINC000668548901    0.0500
     46 H46        -7.5524    2.0742   67.9615 H       1  ZINC000668548901    0.1000
     47 H47       -10.8424    2.6474   65.5382 H       1  ZINC000668548901    0.1000
     48 H48       -10.5500    1.0206   66.1993 H       1  ZINC000668548901    0.0500
@<TRIPOS>BOND
     1     1     2    2
     2     2     3   am
     3     2    17   am
     4     3     4    1
     5     3    29    1
     6     4    16   ar
     7     4     5   ar
     8     5     6   ar
     9     5    30    1
    10     6     7   ar
    11     6    31    1
    12     7     8   ar
    13     8     9    1
    14     8    16   ar
    15     9    10    1
    16    10    15   ar
    17    10    11   ar
    18    11    12   ar
    19    11    32    1
    20    12    13   ar
    21    12    33    1
    22    13    14   ar
    23    13    34    1
    24    14    15   ar
    25    14    35    1
    26    16    36    1
    27    17    18    1
    28    17    37    1
    29    18    19    1
    30    18    20    1
    31    18    22    1
    32    20    21    1
    33    20    38    1
    34    20    39    1
    35    21    40    1
    36    22    23    1
    37    22    28    1
    38    22    24    1
    39    24    25    1
    40    24    41    1
    41    24    42    1
    42    25    26    1
    43    25    43    1
    44    25    44    1
    45    26    27    1
    46    26    45    1
    47    26    46    1
    48    27    28    1
    49    28    47    1
    50    28    48    1
@<TRIPOS>SUBSTRUCTURE
     1 ZINC000668548901        1 TEMP              0 ****  ****    0 ROOT


##########                                Name:    ZINC000826052721
##########                DOCK_Rotatable_Bonds:                   3
##########                         Heavy_Atoms:                  29
##########                    Molecular_Weight:             393.399
##########                DOCK_Rotatable_Bonds:                   3
##########                       Formal_Charge:        -4.47035e-07
##########                     HBond_Acceptors:                   9
##########                        HBond_Donors:                   2
##########                         Heavy_Atoms:                  29
##########                          Grid_Score:          -35.826271
##########                     Grid_vdw_energy:          -33.105122
##########                      Grid_es_energy:           -2.721149
##########           Internal_energy_repulsive:           17.933346

@<TRIPOS>MOLECULE
ZINC000826052721
 46 50 1 0 0
SMALL
USER_CHARGES


@<TRIPOS>ATOM
      1 C1         -9.2419   -3.8148   59.9736 C.3     1  ZINC000826052721   -0.0400
      2 N2         -9.5894   -2.4784   59.4724 N.4     1  ZINC000826052721   -0.3800
      3 H3         -8.8860   -2.1696   58.8183 H       1  ZINC000826052721    0.4300
      4 C4         -9.6632   -1.5378   60.5939 C.3     1  ZINC000826052721    0.0500
      5 C5        -10.1618   -0.1956   60.1274 C.ar    1  ZINC000826052721   -0.1300
      6 C6         -9.9352    0.9116   60.9309 C.ar    1  ZINC000826052721   -0.1000
      7 C7        -10.3815    2.1589   60.5419 C.ar    1  ZINC000826052721   -0.1000
      8 C8        -11.0580    2.3063   59.3456 C.ar    1  ZINC000826052721   -0.0800
      9 C9        -11.2833    1.2050   58.5434 C.ar    1  ZINC000826052721   -0.0800
     10 C10       -10.8346   -0.0470   58.9328 C.ar    1  ZINC000826052721   -0.1200
     11 C11       -11.0975   -1.2233   58.0275 C.3     1  ZINC000826052721    0.1100
     12 H12       -10.4066   -1.1936   57.1849 H       1  ZINC000826052721    0.1100
     13 N13       -12.4780   -1.1576   57.5298 N.3     1  ZINC000826052721   -0.6200
     14 C14       -12.8061   -2.3019   56.8267 C.ar    1  ZINC000826052721    0.1600
     15 C15       -13.6647   -3.2633   57.3710 C.ar    1  ZINC000826052721   -0.0400
     16 C16       -14.2409   -3.0716   58.7177 C.2     1  ZINC000826052721    0.0700
     17 N17       -15.0833   -3.8916   59.3507 N.2     1  ZINC000826052721   -0.3800
     18 N18       -15.3438   -3.3674   60.4994 N.2     1  ZINC000826052721   -0.1600
     19 N19       -14.7108   -2.2527   60.6116 N.2     1  ZINC000826052721   -0.1700
     20 N20       -14.0265   -2.0414   59.5396 N.pl3   1  ZINC000826052721   -0.3400
     21 C21       -13.9765   -4.4082   56.6238 C.ar    1  ZINC000826052721    0.1800
     22 N22       -13.4768   -4.6070   55.4302 N.ar    1  ZINC000826052721   -0.4700
     23 C23       -12.6452   -3.7282   54.8547 C.ar    1  ZINC000826052721    0.0900
     24 C24       -12.1212   -3.9677   53.5713 C.ar    1  ZINC000826052721    0.1700
     25 F25       -12.4550   -5.0929   52.9023 F       1  ZINC000826052721   -0.1100
     26 C26       -11.2759   -3.0601   53.0043 C.ar    1  ZINC000826052721   -0.1900
     27 C27       -10.9192   -1.8933   53.6780 C.ar    1  ZINC000826052721    0.1300
     28 F28       -10.0793   -1.0132   53.0904 F       1  ZINC000826052721   -0.1300
     29 C29       -11.4085   -1.6298   54.9247 C.ar    1  ZINC000826052721   -0.1500
     30 C30       -12.2802   -2.5423   55.5354 C.ar    1  ZINC000826052721   -0.0600
     31 C31       -10.8979   -2.5262   58.8028 C.3     1  ZINC000826052721    0.0000
     32 H32       -10.0045   -4.1487   60.6772 H       1  ZINC000826052721    0.1200
     33 H33        -9.1874   -4.5133   59.1384 H       1  ZINC000826052721    0.1300
     34 H34        -8.2759   -3.7742   60.4768 H       1  ZINC000826052721    0.1200
     35 H35        -8.6714   -1.4208   61.0308 H       1  ZINC000826052721    0.1400
     36 H36       -10.3436   -1.9314   61.3490 H       1  ZINC000826052721    0.1400
     37 H37        -9.4064    0.7977   61.8657 H       1  ZINC000826052721    0.1300
     38 H38       -10.2022    3.0181   61.1712 H       1  ZINC000826052721    0.1300
     39 H39       -11.4092    3.2805   59.0388 H       1  ZINC000826052721    0.1300
     40 H40       -11.8112    1.3200   57.6083 H       1  ZINC000826052721    0.1400
     41 H41       -12.6202   -0.3334   56.9655 H       1  ZINC000826052721    0.4100
     42 H42       -14.6426   -5.1466   57.0454 H       1  ZINC000826052721    0.1800
     43 H43       -10.8766   -3.2485   52.0187 H       1  ZINC000826052721    0.1600
     44 H44       -11.1252   -0.7229   55.4384 H       1  ZINC000826052721    0.1400
     45 H45       -11.6870   -2.6336   59.5470 H       1  ZINC000826052721    0.1400
     46 H46       -10.9244   -3.3700   58.1133 H       1  ZINC000826052721    0.1400
@<TRIPOS>BOND
     1     1     2    1
     2     1    32    1
     3     1    33    1
     4     1    34    1
     5     2     3    1
     6     2    31    1
     7     2     4    1
     8     4     5    1
     9     4    35    1
    10     4    36    1
    11     5    10   ar
    12     5     6   ar
    13     6     7   ar
    14     6    37    1
    15     7     8   ar
    16     7    38    1
    17     8     9   ar
    18     8    39    1
    19     9    10   ar
    20     9    40    1
    21    10    11    1
    22    11    12    1
    23    11    13    1
    24    11    31    1
    25    13    14    1
    26    13    41    1
    27    14    30   ar
    28    14    15   ar
    29    15    16    1
    30    15    21   ar
    31    16    20    1
    32    16    17    2
    33    17    18    1
    34    18    19    2
    35    19    20    1
    36    21    22   ar
    37    21    42    1
    38    22    23   ar
    39    23    30   ar
    40    23    24   ar
    41    24    25    1
    42    24    26   ar
    43    26    27   ar
    44    26    43    1
    45    27    28    1
    46    27    29   ar
    47    29    30   ar
    48    29    44    1
    49    31    45    1
    50    31    46    1
@<TRIPOS>SUBSTRUCTURE
     1 ZINC000826052721        1 TEMP              0 ****  ****    0 ROOT


##########                                Name:    ZINC000550217006
##########                DOCK_Rotatable_Bonds:                   7
##########                         Heavy_Atoms:                  27
##########                    Molecular_Weight:             367.404
##########                DOCK_Rotatable_Bonds:                   7
##########                       Formal_Charge:          0.00999951
##########                     HBond_Acceptors:                   7
##########                        HBond_Donors:                   3
##########                         Heavy_Atoms:                  27
##########                          Grid_Score:          -35.821747
##########                     Grid_vdw_energy:          -33.989437
##########                      Grid_es_energy:           -1.832309
##########           Internal_energy_repulsive:           16.746128

@<TRIPOS>MOLECULE
ZINC000550217006
 48 50 1 0 0
SMALL
USER_CHARGES


@<TRIPOS>ATOM
      1 C1        -14.9233   -3.2542   59.0787 C.3     1  ZINC000550217006   -0.1500
      2 C2        -13.9205   -2.1754   59.4929 C.3     1  ZINC000550217006    0.0500
      3 O3        -12.6030   -2.5795   59.1149 O.3     1  ZINC000550217006   -0.3100
      4 C4        -12.3265   -2.6158   57.7848 C.ar    1  ZINC000550217006    0.1400
      5 C5        -13.1084   -1.8966   56.8929 C.ar    1  ZINC000550217006   -0.2100
      6 C6        -12.8249   -1.9346   55.5411 C.ar    1  ZINC000550217006   -0.0800
      7 C7        -11.7634   -2.6891   55.0773 C.ar    1  ZINC000550217006   -0.1600
      8 C8        -10.9827   -3.4074   55.9644 C.ar    1  ZINC000550217006   -0.0700
      9 C9        -11.2582   -3.3677   57.3173 C.ar    1  ZINC000550217006   -0.1200
     10 C10       -10.4067   -4.1502   58.2836 C.3     1  ZINC000550217006   -0.0800
     11 C11        -9.1671   -3.3315   58.6496 C.3     1  ZINC000550217006    0.1300
     12 N12        -9.4278   -2.5719   59.8748 N.am    1  ZINC000550217006   -0.7200
     13 C13        -9.0649   -1.2764   59.9547 C.2     1  ZINC000550217006    0.5600
     14 O14        -8.5201   -0.7387   59.0108 O.2     1  ZINC000550217006   -0.5300
     15 C15        -9.3300   -0.5082   61.1924 C.ar    1  ZINC000550217006   -0.0800
     16 C16       -10.0661    0.6776   61.1362 C.ar    1  ZINC000550217006   -0.1000
     17 C17       -10.3087    1.3879   62.2864 C.ar    1  ZINC000550217006   -0.0500
     18 C18        -9.8250    0.9355   63.5252 C.ar    1  ZINC000550217006   -0.1300
     19 C19        -9.0926   -0.2496   63.5858 C.ar    1  ZINC000550217006    0.1800
     20 C20        -8.8521   -0.9679   62.4132 C.ar    1  ZINC000550217006   -0.0900
     21 N21        -8.5882   -0.7749   64.7632 N.am    1  ZINC000550217006   -0.6600
     22 C22        -8.0226   -0.0771   65.7435 C.2     1  ZINC000550217006    0.5100
     23 O23        -7.5791   -0.6673   66.7056 O.2     1  ZINC000550217006   -0.5100
     24 C24        -7.9165    1.4225   65.6942 C.3     1  ZINC000550217006    0.0900
     25 N25        -9.2640    1.9919   65.6986 N.am    1  ZINC000550217006   -0.7100
     26 C26       -10.1230    1.7551   64.7087 C.2     1  ZINC000550217006    0.5600
     27 O27       -11.2298    2.2510   64.7893 O.2     1  ZINC000550217006   -0.5200
     28 H28       -14.6743   -4.1918   59.5757 H       1  ZINC000550217006    0.0700
     29 H29       -15.9283   -2.9459   59.3669 H       1  ZINC000550217006    0.0800
     30 H30       -14.8818   -3.3934   57.9984 H       1  ZINC000550217006    0.0700
     31 H31       -14.1695   -1.2378   58.9959 H       1  ZINC000550217006    0.0600
     32 H32       -13.9620   -2.0362   60.5732 H       1  ZINC000550217006    0.0600
     33 H33       -13.9382   -1.3076   57.2548 H       1  ZINC000550217006    0.1300
     34 H34       -13.4334   -1.3748   54.8464 H       1  ZINC000550217006    0.1300
     35 H35       -11.5437   -2.7179   54.0203 H       1  ZINC000550217006    0.1300
     36 H36       -10.1542   -3.9963   55.5995 H       1  ZINC000550217006    0.1300
     37 H37       -10.9815   -4.3620   59.1851 H       1  ZINC000550217006    0.0800
     38 H38       -10.0992   -5.0877   57.8202 H       1  ZINC000550217006    0.0800
     39 H39        -8.3232   -4.0022   58.8106 H       1  ZINC000550217006    0.0700
     40 H40        -8.9339   -2.6426   57.8377 H       1  ZINC000550217006    0.0700
     41 H41        -9.8617   -3.0014   60.6287 H       1  ZINC000550217006    0.4000
     42 H42       -10.4437    1.0356   60.1897 H       1  ZINC000550217006    0.1400
     43 H43       -10.8774    2.3046   62.2378 H       1  ZINC000550217006    0.1500
     44 H44        -8.2828   -1.8848   62.4543 H       1  ZINC000550217006    0.1500
     45 H45        -8.6533   -1.7352   64.8836 H       1  ZINC000550217006    0.4200
     46 H46        -7.3666    1.7785   66.5655 H       1  ZINC000550217006    0.1300
     47 H47        -7.3964    1.7220   64.7844 H       1  ZINC000550217006    0.1000
     48 H48        -9.5383    2.5545   66.4396 H       1  ZINC000550217006    0.4200
@<TRIPOS>BOND
     1     1     2    1
     2     1    28    1
     3     1    29    1
     4     1    30    1
     5     2     3    1
     6     2    31    1
     7     2    32    1
     8     3     4    1
     9     4     9   ar
    10     4     5   ar
    11     5     6   ar
    12     5    33    1
    13     6     7   ar
    14     6    34    1
    15     7     8   ar
    16     7    35    1
    17     8     9   ar
    18     8    36    1
    19     9    10    1
    20    10    11    1
    21    10    37    1
    22    10    38    1
    23    11    12    1
    24    11    39    1
    25    11    40    1
    26    12    13   am
    27    12    41    1
    28    13    14    2
    29    13    15    1
    30    15    20   ar
    31    15    16   ar
    32    16    17   ar
    33    16    42    1
    34    17    18   ar
    35    17    43    1
    36    18    26    1
    37    18    19   ar
    38    19    20   ar
    39    19    21    1
    40    20    44    1
    41    21    22   am
    42    21    45    1
    43    22    23    2
    44    22    24    1
    45    24    25    1
    46    24    46    1
    47    24    47    1
    48    25    26   am
    49    25    48    1
    50    26    27    2
@<TRIPOS>SUBSTRUCTURE
     1 ZINC000550217006        1 TEMP              0 ****  ****    0 ROOT


##########                                Name:    ZINC001492779707
##########                DOCK_Rotatable_Bonds:                   8
##########                         Heavy_Atoms:                  27
##########                    Molecular_Weight:             374.483
##########                DOCK_Rotatable_Bonds:                   8
##########                       Formal_Charge:           0.0199998
##########                     HBond_Acceptors:                   7
##########                        HBond_Donors:                   0
##########                         Heavy_Atoms:                  27
##########                          Grid_Score:          -35.818523
##########                     Grid_vdw_energy:          -34.808231
##########                      Grid_es_energy:           -1.010293
##########           Internal_energy_repulsive:           15.577799

@<TRIPOS>MOLECULE
ZINC001492779707
 57 59 1 0 0
SMALL
USER_CHARGES


@<TRIPOS>ATOM
      1 C1         -9.9250    0.5207   55.4378 C.3     1  ZINC001492779707   -0.0700
      2 C2         -9.5551   -0.1968   56.7103 C.2     1  ZINC001492779707    0.1800
      3 N3         -8.5474    0.0809   57.4884 N.2     1  ZINC001492779707   -0.2900
      4 N4         -8.5256   -0.7283   58.4869 N.2     1  ZINC001492779707   -0.3100
      5 C5         -9.5264   -1.5723   58.3986 C.2     1  ZINC001492779707    0.3400
      6 N6         -9.8276   -2.5891   59.2907 N.3     1  ZINC001492779707   -0.4600
      7 C7         -9.0235   -3.7871   59.0145 C.3     1  ZINC001492779707    0.0300
      8 C8         -9.6472   -2.1425   60.6785 C.3     1  ZINC001492779707    0.1100
      9 C9        -10.9428   -1.5715   61.1948 C.ar    1  ZINC001492779707   -0.0400
     10 C10       -10.9255   -0.5092   62.0793 C.ar    1  ZINC001492779707   -0.1300
     11 C11       -12.1126    0.0171   62.5550 C.ar    1  ZINC001492779707   -0.0800
     12 C12       -13.3189   -0.5180   62.1472 C.ar    1  ZINC001492779707   -0.2100
     13 C13       -13.3389   -1.5843   61.2596 C.ar    1  ZINC001492779707    0.1300
     14 O14       -14.5247   -2.1122   60.8566 O.3     1  ZINC001492779707   -0.3100
     15 C15       -14.8158   -2.0610   59.4584 C.3     1  ZINC001492779707    0.0800
     16 C16       -16.0101   -2.9672   59.1527 C.3     1  ZINC001492779707   -0.1500
     17 C17       -15.1516   -0.6226   59.0597 C.3     1  ZINC001492779707   -0.1800
     18 C18       -12.1471   -2.1066   60.7796 C.ar    1  ZINC001492779707   -0.1400
     19 N19       -10.2179   -1.2560   57.2656 N.pl3   1  ZINC001492779707   -0.4600
     20 C20       -11.4164   -1.9198   56.7466 C.3     1  ZINC001492779707    0.1200
     21 C21       -11.0094   -2.9730   55.7140 C.3     1  ZINC001492779707   -0.1200
     22 C22       -12.2643   -3.5915   55.0947 C.3     1  ZINC001492779707    0.0600
     23 H23       -11.9755   -4.3490   54.3661 H       1  ZINC001492779707    0.0800
     24 C24       -13.1132   -4.2360   56.1942 C.3     1  ZINC001492779707    0.0300
     25 O25       -14.3359   -4.7130   55.6244 O.3     1  ZINC001492779707   -0.3800
     26 C26       -15.1022   -3.6928   54.9771 C.3     1  ZINC001492779707    0.0200
     27 C27       -14.2533   -3.0483   53.8775 C.3     1  ZINC001492779707    0.0300
     28 O28       -13.0299   -2.5715   54.4461 O.3     1  ZINC001492779707   -0.3800
     29 H29       -10.6022    1.3432   55.6682 H       1  ZINC001492779707    0.0900
     30 H30        -9.0238    0.9131   54.9667 H       1  ZINC001492779707    0.1000
     31 H31       -10.4168   -0.1752   54.7581 H       1  ZINC001492779707    0.0800
     32 H32        -7.9732   -3.5735   59.2131 H       1  ZINC001492779707    0.0500
     33 H33        -9.3557   -4.6036   59.6557 H       1  ZINC001492779707    0.0900
     34 H34        -9.1449   -4.0732   57.9698 H       1  ZINC001492779707    0.0700
     35 H35        -9.3512   -2.9895   61.2973 H       1  ZINC001492779707    0.0700
     36 H36        -8.8722   -1.3769   60.7159 H       1  ZINC001492779707    0.0900
     37 H37        -9.9832   -0.0896   62.3995 H       1  ZINC001492779707    0.1200
     38 H38       -12.0963    0.8468   63.2461 H       1  ZINC001492779707    0.1300
     39 H39       -14.2458   -0.1070   62.5193 H       1  ZINC001492779707    0.1300
     40 H40       -13.9477   -2.4013   58.8939 H       1  ZINC001492779707    0.0700
     41 H41       -16.8782   -2.6269   59.7173 H       1  ZINC001492779707    0.0700
     42 H42       -16.2321   -2.9282   58.0863 H       1  ZINC001492779707    0.0800
     43 H43       -15.7708   -3.9920   59.4369 H       1  ZINC001492779707    0.0700
     44 H44       -14.3008    0.0229   59.2775 H       1  ZINC001492779707    0.0600
     45 H45       -15.3737   -0.5837   57.9932 H       1  ZINC001492779707    0.0700
     46 H46       -16.0197   -0.2824   59.6242 H       1  ZINC001492779707    0.0700
     47 H47       -12.1600   -2.9366   60.0886 H       1  ZINC001492779707    0.1300
     48 H48       -11.9490   -2.4014   57.5666 H       1  ZINC001492779707    0.1000
     49 H49       -12.0654   -1.1813   56.2758 H       1  ZINC001492779707    0.1000
     50 H50       -10.4119   -2.5037   54.9325 H       1  ZINC001492779707    0.0900
     51 H51       -10.4230   -3.7519   56.2014 H       1  ZINC001492779707    0.0800
     52 H52       -12.5667   -5.0701   56.6345 H       1  ZINC001492779707    0.1100
     53 H53       -13.3342   -3.4970   56.9643 H       1  ZINC001492779707    0.0600
     54 H54       -15.9962   -4.1336   54.5358 H       1  ZINC001492779707    0.1100
     55 H55       -15.3900   -2.9355   55.7062 H       1  ZINC001492779707    0.0600
     56 H56       -14.0323   -3.7873   53.1074 H       1  ZINC001492779707    0.0600
     57 H57       -14.7997   -2.2142   53.4372 H       1  ZINC001492779707    0.1100
@<TRIPOS>BOND
     1     1     2    1
     2     1    29    1
     3     1    30    1
     4     1    31    1
     5     2    19    1
     6     2     3    2
     7     3     4    1
     8     4     5    2
     9     5     6    1
    10     5    19    1
    11     6     7    1
    12     6     8    1
    13     7    32    1
    14     7    33    1
    15     7    34    1
    16     8     9    1
    17     8    35    1
    18     8    36    1
    19     9    18   ar
    20     9    10   ar
    21    10    11   ar
    22    10    37    1
    23    11    12   ar
    24    11    38    1
    25    12    13   ar
    26    12    39    1
    27    13    14    1
    28    13    18   ar
    29    14    15    1
    30    15    16    1
    31    15    17    1
    32    15    40    1
    33    16    41    1
    34    16    42    1
    35    16    43    1
    36    17    44    1
    37    17    45    1
    38    17    46    1
    39    18    47    1
    40    19    20    1
    41    20    21    1
    42    20    48    1
    43    20    49    1
    44    21    22    1
    45    21    50    1
    46    21    51    1
    47    22    23    1
    48    22    28    1
    49    22    24    1
    50    24    25    1
    51    24    52    1
    52    24    53    1
    53    25    26    1
    54    26    27    1
    55    26    54    1
    56    26    55    1
    57    27    28    1
    58    27    56    1
    59    27    57    1
@<TRIPOS>SUBSTRUCTURE
     1 ZINC001492779707        1 TEMP              0 ****  ****    0 ROOT


##########                                Name:    ZINC000533131987
##########                DOCK_Rotatable_Bonds:                  11
##########                         Heavy_Atoms:                  30
##########                    Molecular_Weight:             419.403
##########                DOCK_Rotatable_Bonds:                  11
##########                       Formal_Charge:                0.01
##########                     HBond_Acceptors:                   9
##########                        HBond_Donors:                   3
##########                         Heavy_Atoms:                  30
##########                          Grid_Score:          -35.806145
##########                     Grid_vdw_energy:          -35.004295
##########                      Grid_es_energy:           -0.801850
##########           Internal_energy_repulsive:           25.584776

@<TRIPOS>MOLECULE
ZINC000533131987
 50 52 1 0 0
SMALL
USER_CHARGES


@<TRIPOS>ATOM
      1 O1        -11.3827   -1.6702   56.6949 O.2     1  ZINC000533131987   -0.5700
      2 C2        -11.8565   -2.7892   56.6541 C.2     1  ZINC000533131987    0.7100
      3 N3        -12.6465   -3.1494   55.6233 N.am    1  ZINC000533131987   -0.7400
      4 C4        -12.9390   -2.1908   54.5549 C.3     1  ZINC000533131987    0.1400
      5 C5        -11.7934   -2.1920   53.5408 C.3     1  ZINC000533131987   -0.0900
      6 H6        -10.8511   -2.3746   54.0574 H       1  ZINC000533131987    0.0900
      7 C7        -12.0297   -3.2937   52.5058 C.3     1  ZINC000533131987    0.0800
      8 O8        -11.5717   -4.5430   53.0271 O.3     1  ZINC000533131987   -0.5600
      9 C9        -11.7342   -0.8349   52.8365 C.3     1  ZINC000533131987   -0.0900
     10 C10       -10.2955   -0.4551   52.5981 C.ar    1  ZINC000533131987    0.0000
     11 C11        -9.3550   -1.4353   52.3433 C.ar    1  ZINC000533131987   -0.1100
     12 C12        -8.0352   -1.0868   52.1247 C.ar    1  ZINC000533131987   -0.0800
     13 C13        -7.6562    0.2419   52.1603 C.ar    1  ZINC000533131987   -0.1300
     14 C14        -8.5971    1.2225   52.4144 C.ar    1  ZINC000533131987   -0.0700
     15 C15        -9.9174    0.8745   52.6288 C.ar    1  ZINC000533131987   -0.1700
     16 C16       -10.9430    1.9434   52.9055 C.3     1  ZINC000533131987    0.5100
     17 F17       -10.3616    3.2038   52.7312 F       1  ZINC000533131987   -0.1800
     18 F18       -12.0174    1.7990   52.0211 F       1  ZINC000533131987   -0.1700
     19 F19       -11.4022    1.8196   54.2212 F       1  ZINC000533131987   -0.1800
     20 N20       -11.5873   -3.6711   57.6371 N.am    1  ZINC000533131987   -0.6900
     21 C21       -10.7669   -3.2971   58.7076 C.ar    1  ZINC000533131987    0.1600
     22 C22        -9.5053   -3.8625   58.8465 C.ar    1  ZINC000533131987   -0.1000
     23 C23        -8.6910   -3.4964   59.9023 C.ar    1  ZINC000533131987   -0.1000
     24 C24        -9.1259   -2.5672   60.8249 C.ar    1  ZINC000533131987   -0.1000
     25 C25       -10.3920   -1.9935   60.6941 C.ar    1  ZINC000533131987    0.0000
     26 C26       -10.8603   -0.9972   61.6811 C.2     1  ZINC000533131987    0.2300
     27 N27       -12.1129   -0.6978   61.9321 N.2     1  ZINC000533131987   -0.4700
     28 C28       -12.1457    0.2459   62.8851 C.2     1  ZINC000533131987   -0.0400
     29 C29       -10.8758    0.5315   63.2262 C.2     1  ZINC000533131987   -0.0700
     30 O30       -10.0745   -0.2504   62.4759 O.3     1  ZINC000533131987   -0.2000
     31 C31       -11.2109   -2.3584   59.6261 C.ar    1  ZINC000533131987   -0.1000
     32 H32       -13.0213   -4.0434   55.5888 H       1  ZINC000533131987    0.4000
     33 H33       -13.8660   -2.4741   54.0563 H       1  ZINC000533131987    0.0700
     34 H34       -13.0460   -1.1932   54.9810 H       1  ZINC000533131987    0.0800
     35 H35       -13.0946   -3.3612   52.2837 H       1  ZINC000533131987    0.0400
     36 H36       -11.4823   -3.0584   51.5931 H       1  ZINC000533131987    0.0600
     37 H37       -12.1928   -4.9670   53.6351 H       1  ZINC000533131987    0.3800
     38 H38       -12.2564   -0.8980   51.8818 H       1  ZINC000533131987    0.0800
     39 H39       -12.2105   -0.0799   53.4620 H       1  ZINC000533131987    0.0900
     40 H40        -9.6513   -2.4736   52.3154 H       1  ZINC000533131987    0.1300
     41 H41        -7.3001   -1.8529   51.9263 H       1  ZINC000533131987    0.1300
     42 H42        -6.6249    0.5141   51.9903 H       1  ZINC000533131987    0.1300
     43 H43        -8.3009    2.2607   52.4426 H       1  ZINC000533131987    0.1300
     44 H44       -11.9621   -4.5652   57.6026 H       1  ZINC000533131987    0.4100
     45 H45        -9.1596   -4.5905   58.1276 H       1  ZINC000533131987    0.1500
     46 H46        -7.7115   -3.9395   60.0052 H       1  ZINC000533131987    0.1400
     47 H47        -8.4871   -2.2842   61.6485 H       1  ZINC000533131987    0.1300
     48 H48       -13.0334    0.6964   63.3039 H       1  ZINC000533131987    0.1900
     49 H49       -10.5579    1.2506   63.9665 H       1  ZINC000533131987    0.2200
     50 H50       -12.1911   -1.9180   59.5198 H       1  ZINC000533131987    0.1400
@<TRIPOS>BOND
     1     1     2    2
     2     2     3   am
     3     2    20   am
     4     3     4    1
     5     3    32    1
     6     4     5    1
     7     4    33    1
     8     4    34    1
     9     5     6    1
    10     5     7    1
    11     5     9    1
    12     7     8    1
    13     7    35    1
    14     7    36    1
    15     8    37    1
    16     9    10    1
    17     9    38    1
    18     9    39    1
    19    10    15   ar
    20    10    11   ar
    21    11    12   ar
    22    11    40    1
    23    12    13   ar
    24    12    41    1
    25    13    14   ar
    26    13    42    1
    27    14    15   ar
    28    14    43    1
    29    15    16    1
    30    16    17    1
    31    16    18    1
    32    16    19    1
    33    20    21    1
    34    20    44    1
    35    21    31   ar
    36    21    22   ar
    37    22    23   ar
    38    22    45    1
    39    23    24   ar
    40    23    46    1
    41    24    25   ar
    42    24    47    1
    43    25    26    1
    44    25    31   ar
    45    26    30    1
    46    26    27    2
    47    27    28    1
    48    28    29    2
    49    28    48    1
    50    29    30    1
    51    29    49    1
    52    31    50    1
@<TRIPOS>SUBSTRUCTURE
     1 ZINC000533131987        1 TEMP              0 ****  ****    0 ROOT


##########                                Name:    ZINC000807524472
##########                DOCK_Rotatable_Bonds:                   9
##########                         Heavy_Atoms:                  28
##########                    Molecular_Weight:             410.534
##########                DOCK_Rotatable_Bonds:                   9
##########                       Formal_Charge:           0.0200006
##########                     HBond_Acceptors:                   8
##########                        HBond_Donors:                   0
##########                         Heavy_Atoms:                  28
##########                          Grid_Score:          -35.799549
##########                     Grid_vdw_energy:          -35.517490
##########                      Grid_es_energy:           -0.282058
##########           Internal_energy_repulsive:           18.979267

@<TRIPOS>MOLECULE
ZINC000807524472
 58 60 1 0 0
SMALL
USER_CHARGES


@<TRIPOS>ATOM
      1 C1         -9.1524   -1.6069   61.4594 C.3     1  ZINC000807524472   -0.1500
      2 C2         -9.8799   -2.6031   60.5542 C.3     1  ZINC000807524472    0.0600
      3 O3         -8.9741   -3.0985   59.5663 O.3     1  ZINC000807524472   -0.3800
      4 C4         -9.4756   -4.2119   58.8240 C.3     1  ZINC000807524472    0.0600
      5 C5        -10.7963   -3.8258   58.1552 C.3     1  ZINC000807524472    0.0700
      6 O6        -11.3356   -4.9747   57.4498 O.3     1  ZINC000807524472   -0.3500
      7 C7        -12.5977   -4.8723   56.9882 C.2     1  ZINC000807524472    0.5000
      8 O8        -13.1963   -5.8676   56.6307 O.2     1  ZINC000807524472   -0.4600
      9 C9        -13.2512   -3.5543   56.9171 C.ar    1  ZINC000807524472   -0.1200
     10 C10       -14.0506   -3.1077   57.9730 C.ar    1  ZINC000807524472    0.0400
     11 C11       -14.6586   -1.8736   57.9002 C.ar    1  ZINC000807524472   -0.7000
     12 S12       -15.6654   -1.3131   59.2332 S.o2    1  ZINC000807524472    2.6900
     13 O13       -16.7283   -0.5725   58.6494 O.2     1  ZINC000807524472   -0.9500
     14 O14       -15.8733   -2.4361   60.0788 O.2     1  ZINC000807524472   -0.9500
     15 N15       -14.7655   -0.2310   60.1059 N.am    1  ZINC000807524472   -0.9900
     16 C16       -14.4636   -0.4787   61.5222 C.3     1  ZINC000807524472    0.1200
     17 C17       -12.9482   -0.3863   61.7270 C.3     1  ZINC000807524472   -0.1400
     18 C18       -12.4481    0.9623   61.2041 C.3     1  ZINC000807524472   -0.1200
     19 C19       -12.7407    1.0708   59.7060 C.3     1  ZINC000807524472   -0.1400
     20 C20       -14.2486    0.9921   59.4767 C.3     1  ZINC000807524472    0.1200
     21 C21       -14.4825   -1.0706   56.7846 C.ar    1  ZINC000807524472    0.0200
     22 C22       -13.6967   -1.4969   55.7334 C.ar    1  ZINC000807524472   -0.1800
     23 C23       -13.0704   -2.7356   55.7902 C.ar    1  ZINC000807524472    0.2000
     24 N24       -12.2790   -3.1668   54.7342 N.3     1  ZINC000807524472   -0.4800
     25 C25       -13.0074   -3.0582   53.4443 C.3     1  ZINC000807524472    0.0400
     26 C26       -11.8691   -3.0564   52.3933 C.3     1  ZINC000807524472   -0.1200
     27 C27       -10.7598   -2.2326   53.0867 C.3     1  ZINC000807524472   -0.1300
     28 C28       -11.0770   -2.3168   54.5912 C.3     1  ZINC000807524472    0.0400
     29 H29        -8.7790   -0.7767   60.8598 H       1  ZINC000807524472    0.0600
     30 H30        -9.8433   -1.2291   62.2130 H       1  ZINC000807524472    0.0700
     31 H31        -8.3164   -2.1053   61.9502 H       1  ZINC000807524472    0.0700
     32 H32       -10.2532   -3.4333   61.1538 H       1  ZINC000807524472    0.0500
     33 H33       -10.7158   -2.1046   60.0634 H       1  ZINC000807524472    0.0500
     34 H34        -8.7510   -4.4957   58.0607 H       1  ZINC000807524472    0.0600
     35 H35        -9.6416   -5.0526   59.4978 H       1  ZINC000807524472    0.0700
     36 H36       -11.5066   -3.4997   58.9149 H       1  ZINC000807524472    0.0900
     37 H37       -10.6221   -3.0145   57.4484 H       1  ZINC000807524472    0.0800
     38 H38       -14.1917   -3.7295   58.8447 H       1  ZINC000807524472    0.1600
     39 H39       -14.9619    0.2699   62.1383 H       1  ZINC000807524472    0.0800
     40 H40       -14.8101   -1.4738   61.8011 H       1  ZINC000807524472    0.0900
     41 H41       -12.7187   -0.4726   62.7890 H       1  ZINC000807524472    0.0800
     42 H42       -12.4577   -1.1925   61.1814 H       1  ZINC000807524472    0.0700
     43 H43       -12.9573    1.7681   61.7329 H       1  ZINC000807524472    0.0700
     44 H44       -11.3738    1.0407   61.3710 H       1  ZINC000807524472    0.0700
     45 H45       -12.3634    2.0216   59.3295 H       1  ZINC000807524472    0.0800
     46 H46       -12.2521    0.2509   59.1795 H       1  ZINC000807524472    0.0700
     47 H47       -14.4549    0.9694   58.4067 H       1  ZINC000807524472    0.0900
     48 H48       -14.7323    1.8594   59.9259 H       1  ZINC000807524472    0.0800
     49 H49       -14.9636   -0.1048   56.7375 H       1  ZINC000807524472    0.1500
     50 H50       -13.5649   -0.8651   54.8675 H       1  ZINC000807524472    0.1400
     51 H51       -13.6634   -3.9167   53.2995 H       1  ZINC000807524472    0.0900
     52 H52       -13.5739   -2.1281   53.3995 H       1  ZINC000807524472    0.0500
     53 H53       -11.5273   -4.0720   52.1932 H       1  ZINC000807524472    0.0800
     54 H54       -12.1937   -2.5693   51.4738 H       1  ZINC000807524472    0.0800
     55 H55        -9.7814   -2.6672   52.8815 H       1  ZINC000807524472    0.0800
     56 H56       -10.7922   -1.1962   52.7506 H       1  ZINC000807524472    0.0700
     57 H57       -11.2780   -1.3203   54.9847 H       1  ZINC000807524472    0.0500
     58 H58       -10.2387   -2.7668   55.1229 H       1  ZINC000807524472    0.0900
@<TRIPOS>BOND
     1     1     2    1
     2     1    29    1
     3     1    30    1
     4     1    31    1
     5     2     3    1
     6     2    32    1
     7     2    33    1
     8     3     4    1
     9     4     5    1
    10     4    34    1
    11     4    35    1
    12     5     6    1
    13     5    36    1
    14     5    37    1
    15     6     7    1
    16     7     8    2
    17     7     9    1
    18     9    23   ar
    19     9    10   ar
    20    10    11   ar
    21    10    38    1
    22    11    12    1
    23    11    21   ar
    24    12    13    2
    25    12    14    2
    26    12    15   am
    27    15    20    1
    28    15    16    1
    29    16    17    1
    30    16    39    1
    31    16    40    1
    32    17    18    1
    33    17    41    1
    34    17    42    1
    35    18    19    1
    36    18    43    1
    37    18    44    1
    38    19    20    1
    39    19    45    1
    40    19    46    1
    41    20    47    1
    42    20    48    1
    43    21    22   ar
    44    21    49    1
    45    22    23   ar
    46    22    50    1
    47    23    24    1
    48    24    28    1
    49    24    25    1
    50    25    26    1
    51    25    51    1
    52    25    52    1
    53    26    27    1
    54    26    53    1
    55    26    54    1
    56    27    28    1
    57    27    55    1
    58    27    56    1
    59    28    57    1
    60    28    58    1
@<TRIPOS>SUBSTRUCTURE
     1 ZINC000807524472        1 TEMP              0 ****  ****    0 ROOT


##########                                Name:    ZINC000465392830
##########                DOCK_Rotatable_Bonds:                   8
##########                         Heavy_Atoms:                  29
##########                    Molecular_Weight:             419.588
##########                DOCK_Rotatable_Bonds:                   8
##########                       Formal_Charge:           0.0199996
##########                     HBond_Acceptors:                   7
##########                        HBond_Donors:                   0
##########                         Heavy_Atoms:                  29
##########                          Grid_Score:          -35.797981
##########                     Grid_vdw_energy:          -34.127399
##########                      Grid_es_energy:           -1.670581
##########           Internal_energy_repulsive:           55.985821

@<TRIPOS>MOLECULE
ZINC000465392830
 62 64 1 0 0
SMALL
USER_CHARGES


@<TRIPOS>ATOM
      1 C1        -18.0058   -2.0746   57.5815 C.3     1  ZINC000465392830    0.0400
      2 O2        -17.2237   -0.8570   57.7003 O.3     1  ZINC000465392830   -0.3600
      3 C3        -15.9040   -0.9975   57.9015 C.2     1  ZINC000465392830    0.4600
      4 O4        -15.2016   -0.0201   58.0072 O.2     1  ZINC000465392830   -0.4900
      5 C5        -15.2986   -2.3744   57.9955 C.3     1  ZINC000465392830    0.1500
      6 H6        -16.0306   -3.0743   58.3985 H       1  ZINC000465392830    0.1100
      7 C7        -14.8389   -2.8420   56.5986 C.3     1  ZINC000465392830   -0.1100
      8 C8        -13.5119   -3.5872   56.9009 C.3     1  ZINC000465392830   -0.0900
      9 H9        -13.7034   -4.6101   57.2252 H       1  ZINC000465392830    0.1000
     10 C10       -12.5816   -3.5652   55.6864 C.3     1  ZINC000465392830   -0.0800
     11 C11       -13.3416   -4.0569   54.4529 C.3     1  ZINC000465392830   -0.1200
     12 C12       -12.4113   -4.0350   53.2384 C.3     1  ZINC000465392830   -0.1200
     13 C13       -11.9195   -2.6062   52.9984 C.3     1  ZINC000465392830   -0.1200
     14 C14       -11.1596   -2.1145   54.2319 C.3     1  ZINC000465392830   -0.1200
     15 C15       -12.0898   -2.1364   55.4464 C.3     1  ZINC000465392830   -0.1200
     16 C16       -12.9343   -2.7363   58.0593 C.3     1  ZINC000465392830    0.1000
     17 N17       -14.1105   -2.3401   58.8609 N.am    1  ZINC000465392830   -0.6100
     18 C18       -14.0942   -2.0012   60.1652 C.2     1  ZINC000465392830    0.5400
     19 O19       -15.1244   -1.6884   60.7234 O.2     1  ZINC000465392830   -0.5300
     20 C20       -12.7957   -2.0111   60.9300 C.3     1  ZINC000465392830   -0.1300
     21 C21       -11.9442   -0.8130   60.5048 C.3     1  ZINC000465392830   -0.0600
     22 C22       -10.9855   -0.4598   61.6126 C.ar    1  ZINC000465392830   -0.2000
     23 C23        -9.6938   -0.9629   61.6183 C.ar    1  ZINC000465392830    0.2000
     24 C24        -9.2253   -1.8738   60.5129 C.3     1  ZINC000465392830   -0.1100
     25 N25        -8.8774   -0.6334   62.6052 N.ar    1  ZINC000465392830   -0.5000
     26 C26        -9.2823    0.1676   63.5806 C.ar    1  ZINC000465392830    0.3000
     27 S27        -8.1613    0.5806   64.8759 S.3     1  ZINC000465392830    0.0000
     28 C28        -9.2596    1.5397   65.9482 C.3     1  ZINC000465392830   -0.1400
     29 N29       -10.5104    0.6658   63.6044 N.ar    1  ZINC000465392830   -0.5300
     30 C30       -11.3745    0.3798   62.6448 C.ar    1  ZINC000465392830    0.2000
     31 C31       -12.7690    0.9502   62.6793 C.3     1  ZINC000465392830   -0.1100
     32 H32       -17.6414   -2.6595   56.7370 H       1  ZINC000465392830    0.0600
     33 H33       -17.9096   -2.6590   58.4967 H       1  ZINC000465392830    0.0600
     34 H34       -19.0534   -1.8195   57.4218 H       1  ZINC000465392830    0.1000
     35 H35       -15.5703   -3.5200   56.1588 H       1  ZINC000465392830    0.1000
     36 H36       -14.6613   -1.9880   55.9450 H       1  ZINC000465392830    0.0800
     37 H37       -11.7277   -4.2171   55.8710 H       1  ZINC000465392830    0.0800
     38 H38       -13.6919   -5.0748   54.6239 H       1  ZINC000465392830    0.0600
     39 H39       -14.1954   -3.4050   54.2683 H       1  ZINC000465392830    0.0700
     40 H40       -11.5574   -4.6870   53.4230 H       1  ZINC000465392830    0.0600
     41 H41       -12.9527   -4.3854   52.3596 H       1  ZINC000465392830    0.0600
     42 H42       -11.2567   -2.5906   52.1332 H       1  ZINC000465392830    0.0600
     43 H43       -12.7734   -1.9543   52.8138 H       1  ZINC000465392830    0.0600
     44 H44       -10.3057   -2.7664   54.4165 H       1  ZINC000465392830    0.0600
     45 H45       -10.8092   -1.0965   54.0609 H       1  ZINC000465392830    0.0600
     46 H46       -12.9437   -1.4844   55.2619 H       1  ZINC000465392830    0.0700
     47 H47       -11.5484   -1.7860   56.3252 H       1  ZINC000465392830    0.0600
     48 H48       -12.2491   -3.3319   58.6625 H       1  ZINC000465392830    0.0900
     49 H49       -12.4272   -1.8550   57.6664 H       1  ZINC000465392830    0.0800
     50 H50       -13.0029   -1.9487   61.9984 H       1  ZINC000465392830    0.1000
     51 H51       -12.2561   -2.9340   60.7179 H       1  ZINC000465392830    0.1000
     52 H52       -11.3829   -1.0671   59.6057 H       1  ZINC000465392830    0.0900
     53 H53       -12.5925    0.0389   60.2999 H       1  ZINC000465392830    0.0900
     54 H54        -8.7923   -1.2776   59.7098 H       1  ZINC000465392830    0.0900
     55 H55        -8.4732   -2.5602   60.9020 H       1  ZINC000465392830    0.0900
     56 H56       -10.0716   -2.4425   60.1276 H       1  ZINC000465392830    0.0900
     57 H57        -9.6405    2.4017   65.4004 H       1  ZINC000465392830    0.0900
     58 H58       -10.0936    0.9144   66.2667 H       1  ZINC000465392830    0.0900
     59 H59        -8.7062    1.8808   66.8231 H       1  ZINC000465392830    0.1100
     60 H60       -12.7838    1.9055   62.1546 H       1  ZINC000465392830    0.0900
     61 H61       -13.4567    0.2581   62.1936 H       1  ZINC000465392830    0.0900
     62 H62       -13.0748    1.0997   63.7148 H       1  ZINC000465392830    0.0800
@<TRIPOS>BOND
     1     1     2    1
     2     1    32    1
     3     1    33    1
     4     1    34    1
     5     2     3    1
     6     3     4    2
     7     3     5    1
     8     5     6    1
     9     5    17    1
    10     5     7    1
    11     7     8    1
    12     7    35    1
    13     7    36    1
    14     8     9    1
    15     8    10    1
    16     8    16    1
    17    10    15    1
    18    10    11    1
    19    10    37    1
    20    11    12    1
    21    11    38    1
    22    11    39    1
    23    12    13    1
    24    12    40    1
    25    12    41    1
    26    13    14    1
    27    13    42    1
    28    13    43    1
    29    14    15    1
    30    14    44    1
    31    14    45    1
    32    15    46    1
    33    15    47    1
    34    16    17    1
    35    16    48    1
    36    16    49    1
    37    17    18   am
    38    18    19    2
    39    18    20    1
    40    20    21    1
    41    20    50    1
    42    20    51    1
    43    21    22    1
    44    21    52    1
    45    21    53    1
    46    22    30   ar
    47    22    23   ar
    48    23    24    1
    49    23    25   ar
    50    24    54    1
    51    24    55    1
    52    24    56    1
    53    25    26   ar
    54    26    27    1
    55    26    29   ar
    56    27    28    1
    57    28    57    1
    58    28    58    1
    59    28    59    1
    60    29    30   ar
    61    30    31    1
    62    31    60    1
    63    31    61    1
    64    31    62    1
@<TRIPOS>SUBSTRUCTURE
     1 ZINC000465392830        1 TEMP              0 ****  ****    0 ROOT


##########                                Name:    ZINC001344051361
##########                DOCK_Rotatable_Bonds:                   8
##########                         Heavy_Atoms:                  28
##########                    Molecular_Weight:             379.456
##########                DOCK_Rotatable_Bonds:                   8
##########                       Formal_Charge:          -0.0100006
##########                     HBond_Acceptors:                   5
##########                        HBond_Donors:                   0
##########                         Heavy_Atoms:                  28
##########                          Grid_Score:          -35.761307
##########                     Grid_vdw_energy:          -34.693039
##########                      Grid_es_energy:           -1.068269
##########           Internal_energy_repulsive:           21.432602

@<TRIPOS>MOLECULE
ZINC001344051361
 53 56 1 0 0
SMALL
USER_CHARGES


@<TRIPOS>ATOM
      1 O1        -10.8955   -3.7002   55.5634 O.2     1  ZINC001344051361   -0.4800
      2 C2        -11.6862   -3.8043   56.4711 C.2     1  ZINC001344051361    0.4800
      3 O3        -11.2470   -3.9060   57.7354 O.3     1  ZINC001344051361   -0.3500
      4 C4        -10.0676   -3.1356   58.0876 C.3     1  ZINC001344051361    0.0700
      5 C5        -10.2419   -2.5484   59.4897 C.3     1  ZINC001344051361   -0.1000
      6 H6        -10.5581   -3.3338   60.1762 H       1  ZINC001344051361    0.0900
      7 C7         -8.9122   -1.9589   59.9654 C.3     1  ZINC001344051361   -0.1200
      8 C8         -9.0771   -1.4006   61.3807 C.3     1  ZINC001344051361   -0.1300
      9 C9        -10.1239   -0.2823   61.3655 C.3     1  ZINC001344051361    0.0800
     10 N10       -11.3639   -0.8033   60.7740 N.am    1  ZINC001344051361   -0.6100
     11 C11       -12.5359   -0.6958   61.4308 C.2     1  ZINC001344051361    0.5600
     12 O12       -12.5739   -0.1639   62.5231 O.2     1  ZINC001344051361   -0.5300
     13 C13       -13.7753   -1.2249   60.8227 C.ar    1  ZINC001344051361   -0.1300
     14 C14       -14.1767   -2.5370   61.0783 C.ar    1  ZINC001344051361   -0.1000
     15 C15       -15.3345   -3.0244   60.5080 C.ar    1  ZINC001344051361   -0.1300
     16 C16       -16.0970   -2.2157   59.6840 C.ar    1  ZINC001344051361   -0.0900
     17 C17       -15.7045   -0.9143   59.4262 C.ar    1  ZINC001344051361   -0.1300
     18 C18       -14.5521   -0.4126   59.9951 C.ar    1  ZINC001344051361   -0.0600
     19 C19       -11.3025   -1.4437   59.4531 C.3     1  ZINC001344051361    0.1200
     20 C20       -13.1656   -3.8135   56.1844 C.3     1  ZINC001344051361    0.0200
     21 O21       -13.7184   -2.5668   55.7574 O.3     1  ZINC001344051361   -0.2500
     22 C22       -13.3631   -2.1250   54.5223 C.ar    1  ZINC001344051361    0.1200
     23 C23       -13.5242   -0.7878   54.1897 C.ar    1  ZINC001344051361   -0.2000
     24 C24       -13.1618   -0.3411   52.9337 C.ar    1  ZINC001344051361   -0.0800
     25 C25       -12.6392   -1.2256   52.0082 C.ar    1  ZINC001344051361   -0.1500
     26 C26       -12.4780   -2.5588   52.3372 C.ar    1  ZINC001344051361   -0.0800
     27 C27       -12.8331   -3.0093   53.5940 C.ar    1  ZINC001344051361   -0.1400
     28 C28       -13.7623   -5.0914   55.5913 C.3     1  ZINC001344051361   -0.1700
     29 C29       -14.0470   -4.7183   57.0476 C.3     1  ZINC001344051361   -0.1100
     30 H30        -9.1918   -3.7843   58.0716 H       1  ZINC001344051361    0.0800
     31 H31        -9.9340   -2.3270   57.3690 H       1  ZINC001344051361    0.0800
     32 H32        -8.1500   -2.7381   59.9689 H       1  ZINC001344051361    0.0700
     33 H33        -8.6086   -1.1574   59.2920 H       1  ZINC001344051361    0.0700
     34 H34        -9.4045   -2.1963   62.0499 H       1  ZINC001344051361    0.0700
     35 H35        -8.1238   -1.0019   61.7279 H       1  ZINC001344051361    0.0800
     36 H36       -10.3173    0.0511   62.3851 H       1  ZINC001344051361    0.1100
     37 H37        -9.7574    0.5531   60.7690 H       1  ZINC001344051361    0.0700
     38 H38       -13.5820   -3.1695   61.7207 H       1  ZINC001344051361    0.1400
     39 H39       -15.6463   -4.0395   60.7050 H       1  ZINC001344051361    0.1300
     40 H40       -17.0024   -2.6022   59.2398 H       1  ZINC001344051361    0.1300
     41 H41       -16.3040   -0.2884   58.7818 H       1  ZINC001344051361    0.1300
     42 H42       -14.2470    0.6036   59.7933 H       1  ZINC001344051361    0.1300
     43 H43       -11.0321   -0.7033   58.7003 H       1  ZINC001344051361    0.0700
     44 H44       -12.2735   -1.8760   59.2112 H       1  ZINC001344051361    0.1000
     45 H45       -13.9331   -0.0967   54.9120 H       1  ZINC001344051361    0.1300
     46 H46       -13.2871    0.6998   52.6743 H       1  ZINC001344051361    0.1300
     47 H47       -12.3568   -0.8745   51.0267 H       1  ZINC001344051361    0.1300
     48 H48       -12.0699   -3.2478   51.6125 H       1  ZINC001344051361    0.1300
     49 H49       -12.7070   -4.0508   53.8504 H       1  ZINC001344051361    0.1300
     50 H50       -14.5767   -4.9814   54.8753 H       1  ZINC001344051361    0.1200
     51 H51       -13.0849   -5.9255   55.4086 H       1  ZINC001344051361    0.1200
     52 H52       -13.5568   -5.3071   57.8230 H       1  ZINC001344051361    0.1200
     53 H53       -15.0486   -4.3629   57.2896 H       1  ZINC001344051361    0.1200
@<TRIPOS>BOND
     1     1     2    2
     2     2     3    1
     3     2    20    1
     4     3     4    1
     5     4     5    1
     6     4    30    1
     7     4    31    1
     8     5     6    1
     9     5    19    1
    10     5     7    1
    11     7     8    1
    12     7    32    1
    13     7    33    1
    14     8     9    1
    15     8    34    1
    16     8    35    1
    17     9    10    1
    18     9    36    1
    19     9    37    1
    20    10    11   am
    21    10    19    1
    22    11    12    2
    23    11    13    1
    24    13    18   ar
    25    13    14   ar
    26    14    15   ar
    27    14    38    1
    28    15    16   ar
    29    15    39    1
    30    16    17   ar
    31    16    40    1
    32    17    18   ar
    33    17    41    1
    34    18    42    1
    35    19    43    1
    36    19    44    1
    37    20    29    1
    38    20    21    1
    39    20    28    1
    40    21    22    1
    41    22    27   ar
    42    22    23   ar
    43    23    24   ar
    44    23    45    1
    45    24    25   ar
    46    24    46    1
    47    25    26   ar
    48    25    47    1
    49    26    27   ar
    50    26    48    1
    51    27    49    1
    52    28    29    1
    53    28    50    1
    54    28    51    1
    55    29    52    1
    56    29    53    1
@<TRIPOS>SUBSTRUCTURE
     1 ZINC001344051361        1 TEMP              0 ****  ****    0 ROOT


##########                                Name:    ZINC000957079511
##########                DOCK_Rotatable_Bonds:                   8
##########                         Heavy_Atoms:                  25
##########                    Molecular_Weight:             362.453
##########                DOCK_Rotatable_Bonds:                   8
##########                       Formal_Charge:        -4.32134e-07
##########                     HBond_Acceptors:                   8
##########                        HBond_Donors:                   2
##########                         Heavy_Atoms:                  25
##########                          Grid_Score:          -35.738197
##########                     Grid_vdw_energy:          -34.207897
##########                      Grid_es_energy:           -1.530300
##########           Internal_energy_repulsive:           12.242436

@<TRIPOS>MOLECULE
ZINC000957079511
 47 49 1 0 0
SMALL
USER_CHARGES


@<TRIPOS>ATOM
      1 C1         -7.9843    1.1259   67.1332 C.3     1  ZINC000957079511   -0.0700
      2 C2         -8.8365    1.8134   66.0977 C.2     1  ZINC000957079511    0.0300
      3 C3         -9.0019    1.4195   64.8206 C.2     1  ZINC000957079511   -0.0200
      4 C4         -8.3744    0.2175   64.1628 C.3     1  ZINC000957079511   -0.0600
      5 C5         -9.2923   -0.3025   63.0867 C.2     1  ZINC000957079511    0.5100
      6 O6        -10.4882   -0.1181   63.1683 O.2     1  ZINC000957079511   -0.5200
      7 N7         -8.7842   -0.9727   62.0335 N.am    1  ZINC000957079511   -0.7200
      8 C8         -9.6767   -1.4798   60.9882 C.3     1  ZINC000957079511    0.1400
      9 H9        -10.6928   -1.5930   61.3660 H       1  ZINC000957079511    0.1100
     10 C10        -9.1485   -2.8151   60.4068 C.3     1  ZINC000957079511    0.0800
     11 N11        -9.7204   -2.8883   59.0500 N.am    1  ZINC000957079511   -0.6200
     12 C12        -9.9293   -4.0183   58.3457 C.2     1  ZINC000957079511    0.5400
     13 O13        -9.6366   -5.0938   58.8239 O.2     1  ZINC000957079511   -0.5100
     14 C14       -10.5262   -3.9454   56.9639 C.3     1  ZINC000957079511    0.0500
     15 O15       -11.9452   -4.0914   57.0497 O.3     1  ZINC000957079511   -0.2800
     16 C16       -12.6398   -4.0831   55.8779 C.2     1  ZINC000957079511    0.1200
     17 C17       -12.0439   -3.9527   54.6890 C.2     1  ZINC000957079511   -0.3300
     18 S18       -13.2555   -3.9863   53.4146 S.3     1  ZINC000957079511    0.1300
     19 C19       -14.5411   -4.1811   54.5988 C.2     1  ZINC000957079511   -0.1800
     20 C20       -14.0192   -4.2151   55.8264 C.2     1  ZINC000957079511   -0.1400
     21 C21       -10.0261   -1.5248   58.5929 C.3     1  ZINC000957079511    0.1100
     22 C22        -9.6473   -0.5614   59.7380 C.3     1  ZINC000957079511   -0.1100
     23 H23        -8.6486   -0.1528   59.5838 H       1  ZINC000957079511    0.0900
     24 C24       -10.6770    0.5635   59.8619 C.3     1  ZINC000957079511   -0.1400
     25 N25        -9.8499    2.3202   64.2349 N.pl3   1  ZINC000957079511   -0.5600
     26 C26       -10.1734    3.2340   65.1752 C.2     1  ZINC000957079511    0.2000
     27 N27        -9.5676    2.9216   66.2881 N.2     1  ZINC000957079511   -0.4900
     28 H28        -8.5823    0.3828   67.6607 H       1  ZINC000957079511    0.0700
     29 H29        -7.1433    0.6345   66.6438 H       1  ZINC000957079511    0.0600
     30 H30        -7.6109    1.8630   67.8441 H       1  ZINC000957079511    0.0700
     31 H31        -7.4201    0.5025   63.7199 H       1  ZINC000957079511    0.1000
     32 H32        -8.2109   -0.5607   64.9083 H       1  ZINC000957079511    0.1200
     33 H33        -7.8276   -1.1193   61.9675 H       1  ZINC000957079511    0.4000
     34 H34        -8.0595   -2.8037   60.3594 H       1  ZINC000957079511    0.0800
     35 H35        -9.4940   -3.6545   61.0100 H       1  ZINC000957079511    0.0800
     36 H36       -10.2867   -2.9814   56.5151 H       1  ZINC000957079511    0.0900
     37 H37       -10.1153   -4.7452   56.3479 H       1  ZINC000957079511    0.0900
     38 H38       -10.9806   -3.8430   54.5342 H       1  ZINC000957079511    0.1700
     39 H39       -15.5926   -4.2647   54.3673 H       1  ZINC000957079511    0.1800
     40 H40       -14.6256   -4.3290   56.7128 H       1  ZINC000957079511    0.1500
     41 H41        -9.4407   -1.2922   57.7033 H       1  ZINC000957079511    0.0800
     42 H42       -11.0900   -1.4375   58.3725 H       1  ZINC000957079511    0.0800
     43 H43       -11.6625    0.1353   60.0453 H       1  ZINC000957079511    0.0600
     44 H44       -10.4042    1.2159   60.6914 H       1  ZINC000957079511    0.0600
     45 H45       -10.6977    1.1405   58.9374 H       1  ZINC000957079511    0.0700
     46 H46       -10.1605    2.3051   63.3161 H       1  ZINC000957079511    0.4200
     47 H47       -10.8283    4.0807   65.0312 H       1  ZINC000957079511    0.2100
@<TRIPOS>BOND
     1     1     2    1
     2     1    28    1
     3     1    29    1
     4     1    30    1
     5     2    27    1
     6     2     3    2
     7     3     4    1
     8     3    25    1
     9     4     5    1
    10     4    31    1
    11     4    32    1
    12     5     6    2
    13     5     7   am
    14     7     8    1
    15     7    33    1
    16     8     9    1
    17     8    22    1
    18     8    10    1
    19    10    11    1
    20    10    34    1
    21    10    35    1
    22    11    12   am
    23    11    21    1
    24    12    13    2
    25    12    14    1
    26    14    15    1
    27    14    36    1
    28    14    37    1
    29    15    16    1
    30    16    20    1
    31    16    17    2
    32    17    18    1
    33    17    38    1
    34    18    19    1
    35    19    20    2
    36    19    39    1
    37    20    40    1
    38    21    22    1
    39    21    41    1
    40    21    42    1
    41    22    23    1
    42    22    24    1
    43    24    43    1
    44    24    44    1
    45    24    45    1
    46    25    26    1
    47    25    46    1
    48    26    27    2
    49    26    47    1
@<TRIPOS>SUBSTRUCTURE
     1 ZINC000957079511        1 TEMP              0 ****  ****    0 ROOT


##########                                Name:     oleObject79.pdb
##########                DOCK_Rotatable_Bonds:                  12
##########                         Heavy_Atoms:                  53
##########                    Molecular_Weight:             725.376
##########                DOCK_Rotatable_Bonds:                  12
##########                       Formal_Charge:          0.00050066
##########                     HBond_Acceptors:                   8
##########                        HBond_Donors:                   4
##########                         Heavy_Atoms:                  53
##########                          Grid_Score:          -35.730633
##########                     Grid_vdw_energy:          -35.141148
##########                      Grid_es_energy:           -0.589485
##########           Internal_energy_repulsive:          125.829971

@<TRIPOS>MOLECULE
oleObject79.pdb
 102 108 1 0 0
SMALL
NO_CHARGES


@<TRIPOS>ATOM
      1 C         -14.7470   -0.2242   63.5161 C.ar    1  UNL        -0.0620
      2 C         -14.1961   -0.8985   62.4175 C.ar    1  UNL        -0.0590
      3 C         -13.8596   -0.2039   61.2391 C.ar    1  UNL        -0.0456
      4 C         -14.0776    1.1974   61.1613 C.ar    1  UNL        -0.0185
      5 C         -14.6330    1.8580   62.2787 C.ar    1  UNL        -0.0565
      6 C         -14.9660    1.1563   63.4459 C.ar    1  UNL        -0.0619
      7 C         -13.6794    2.0203   59.9194 C.3     1  UNL         0.0931
      8 C         -12.1761    2.0104   59.5845 C.ar    1  UNL         0.0683
      9 C         -11.1974    1.8011   60.5898 C.ar    1  UNL        -0.0272
     10 C          -9.8402    1.8040   60.2160 C.ar    1  UNL        -0.0559
     11 C          -9.5014    2.0098   58.8711 C.ar    1  UNL        -0.0435
     12 C         -10.5330    2.2066   57.9417 C.ar    1  UNL         0.0272
     13 N         -11.8331    2.2069   58.2899 N.ar    1  UNL        -0.2587
     14 C         -11.5664    1.5760   62.0526 C.3     1  UNL        -0.0379
     15 N         -14.5738    1.7258   58.7651 N.am    1  UNL        -0.2918
     16 C         -14.2275    0.7430   57.8351 C.2     1  UNL         0.2179
     17 O         -13.0765    0.3451   57.7653 O.2     1  UNL        -0.2772
     18 C         -15.2239    0.5094   56.6677 C.3     1  UNL         0.0361
     19 C         -15.2160   -0.9537   56.1392 C.3     1  UNL        -0.0412
     20 C         -13.9583   -1.3104   55.2993 C.3     1  UNL        -0.0453
     21 C         -13.6414   -0.3018   54.1550 C.3     1  UNL        -0.0139
     22 C         -12.2055   -0.5855   53.6330 C.3     1  UNL         0.0171
     23 N         -11.8827    0.2717   52.4743 N.pl3   1  UNL        -0.3290
     24 C         -12.7669    0.0663   51.3103 C.3     1  UNL         0.0115
     25 C         -14.2455    0.2963   51.7026 C.3     1  UNL        -0.0368
     26 C         -14.6384   -0.5049   52.9693 C.3     1  UNL        -0.0446
     27 C         -10.7057    1.0259   52.4225 C.ar    1  UNL         0.0476
     28 C         -10.7968    2.4306   52.3701 C.ar    1  UNL        -0.0375
     29 C          -9.6440    3.2266   52.2872 C.ar    1  UNL        -0.0388
     30 C          -8.3722    2.6361   52.2318 C.ar    1  UNL         0.0318
     31 C          -8.2712    1.2346   52.3014 C.ar    1  UNL        -0.0202
     32 C          -9.4215    0.4323   52.3896 C.ar    1  UNL         0.0636
     33 CL         -9.1832   -1.3067   52.3862 Cl      1  UNL        -0.0822
     34 N          -7.2502    3.4583   52.1494 N.pl3   1  UNL        -0.3149
     35 C          -6.0104    3.2719   51.5402 C.ar    1  UNL         0.0302
     36 C          -4.8217    3.7942   52.0826 C.ar    1  UNL        -0.0402
     37 C          -3.5876    3.5630   51.4543 C.ar    1  UNL        -0.0525
     38 C          -3.4979    2.7954   50.2665 C.ar    1  UNL        -0.0182
     39 C          -4.7023    2.2616   49.7446 C.ar    1  UNL        -0.0525
     40 C          -5.9356    2.4893   50.3768 C.ar    1  UNL        -0.0402
     41 C          -2.1791    2.5477   49.5932 C.ar    1  UNL        -0.0177
     42 C          -2.0929    1.7805   48.4035 C.ar    1  UNL        -0.0439
     43 C          -0.8604    1.5356   47.7593 C.ar    1  UNL         0.0111
     44 C           0.3150    2.0729   48.3236 C.ar    1  UNL        -0.0518
     45 C           0.2560    2.8360   49.4984 C.ar    1  UNL        -0.0609
     46 C          -0.9759    3.0718   50.1255 C.ar    1  UNL        -0.0543
     47 C          -0.8062    0.7790   46.5843 C.2     1  UNL         0.1014
     48 N           0.2979    0.5228   45.9847 N.3     1  UNL        -0.2892
     49 N          -1.9237    0.2908   46.0288 N.3     1  UNL        -0.2870
     50 C         -13.6886    1.1526   54.7188 C.3     1  UNL        -0.0453
     51 C         -14.9903    1.4802   55.4810 C.3     1  UNL        -0.0412
     52 C         -15.8418    2.4803   58.6583 C.3     1  UNL         0.0037
     53 C         -13.2440   -0.9977   60.0918 C.3     1  UNL        -0.0394
     54 H         -14.9999   -0.7685   64.4208 H       1  UNL         0.0623
     55 H         -14.0239   -1.9687   62.4859 H       1  UNL         0.0626
     56 H         -14.8086    2.9281   62.2458 H       1  UNL         0.0627
     57 H         -15.3902    1.6837   64.2952 H       1  UNL         0.0623
     58 H         -13.8682    3.0644   60.1739 H       1  UNL         0.0626
     59 H          -9.0596    1.6481   60.9552 H       1  UNL         0.0627
     60 H          -8.4625    2.0155   58.5549 H       1  UNL         0.0639
     61 H         -10.3136    2.3681   56.8870 H       1  UNL         0.0840
     62 H         -12.1029    2.4395   62.4640 H       1  UNL         0.0280
     63 H         -10.6762    1.4200   62.6744 H       1  UNL         0.0280
     64 H         -12.2042    0.6914   62.1705 H       1  UNL         0.0280
     65 H         -16.2262    0.6986   57.0709 H       1  UNL         0.0401
     66 H         -16.1074   -1.1067   55.5177 H       1  UNL         0.0275
     67 H         -15.3082   -1.6536   56.9797 H       1  UNL         0.0275
     68 H         -14.0774   -2.3201   54.8857 H       1  UNL         0.0273
     69 H         -13.0910   -1.3724   55.9669 H       1  UNL         0.0273
     70 H         -12.1239   -1.6399   53.3384 H       1  UNL         0.0474
     71 H         -11.4878   -0.4126   54.4457 H       1  UNL         0.0474
     72 H         -12.6501   -0.9637   50.9496 H       1  UNL         0.0468
     73 H         -12.4934    0.7352   50.4851 H       1  UNL         0.0468
     74 H         -14.8951    0.0071   50.8671 H       1  UNL         0.0283
     75 H         -14.4190    1.3653   51.8733 H       1  UNL         0.0283
     76 H         -14.6584   -1.5691   52.7001 H       1  UNL         0.0273
     77 H         -15.6627   -0.2472   53.2621 H       1  UNL         0.0273
     78 H         -11.7692    2.9134   52.4017 H       1  UNL         0.0644
     79 H          -9.7422    4.3079   52.2495 H       1  UNL         0.0643
     80 H          -7.2962    0.7574   52.2911 H       1  UNL         0.0659
     81 H          -7.3615    4.3599   52.5951 H       1  UNL         0.1528
     82 H          -4.8427    4.3663   53.0037 H       1  UNL         0.0643
     83 H          -2.6949    3.9975   51.8931 H       1  UNL         0.0630
     84 H          -4.6836    1.6453   48.8514 H       1  UNL         0.0630
     85 H          -6.8396    2.0590   49.9550 H       1  UNL         0.0643
     86 H          -3.0024    1.3757   47.9707 H       1  UNL         0.0637
     87 H           1.2790    1.9132   47.8484 H       1  UNL         0.0630
     88 H           1.1676    3.2452   49.9249 H       1  UNL         0.0623
     89 H          -0.9904    3.6513   51.0433 H       1  UNL         0.0629
     90 H           0.5246    1.2606   45.3145 H       1  UNL         0.1889
     91 H          -2.2629   -0.6312   46.2969 H       1  UNL         0.1258
     92 H          -2.7365    0.8954   45.9240 H       1  UNL         0.1258
     93 H         -13.5471    1.8919   53.9226 H       1  UNL         0.0273
     94 H         -12.8441    1.2904   55.4036 H       1  UNL         0.0273
     95 H         -15.8431    1.4250   54.7939 H       1  UNL         0.0275
     96 H         -14.9579    2.5195   55.8239 H       1  UNL         0.0275
     97 H         -15.9447    2.9296   57.6643 H       1  UNL         0.0433
     98 H         -15.8921    3.2886   59.3967 H       1  UNL         0.0433
     99 H         -16.6840    1.7982   58.8283 H       1  UNL         0.0433
    100 H         -13.2180   -2.0730   60.3081 H       1  UNL         0.0280
    101 H         -12.2113   -0.6785   59.9034 H       1  UNL         0.0280
    102 H         -13.8188   -0.8663   59.1664 H       1  UNL         0.0280
@<TRIPOS>BOND
     1     1     2   ar
     2     1     6   ar
     3     1    54    1
     4     2     3   ar
     5     2    55    1
     6     3     4   ar
     7     3    53    1
     8     4     5   ar
     9     4     7    1
    10     5     6   ar
    11     5    56    1
    12     6    57    1
    13     7     8    1
    14     7    15    1
    15     7    58    1
    16     8     9   ar
    17     8    13   ar
    18     9    10   ar
    19     9    14    1
    20    10    11   ar
    21    10    59    1
    22    11    12   ar
    23    11    60    1
    24    12    13   ar
    25    12    61    1
    26    14    62    1
    27    14    63    1
    28    14    64    1
    29    15    16   am
    30    15    52    1
    31    16    17    2
    32    16    18    1
    33    18    19    1
    34    18    51    1
    35    18    65    1
    36    19    20    1
    37    19    66    1
    38    19    67    1
    39    20    21    1
    40    20    68    1
    41    20    69    1
    42    21    22    1
    43    21    26    1
    44    21    50    1
    45    22    23    1
    46    22    70    1
    47    22    71    1
    48    23    24    1
    49    23    27    1
    50    24    25    1
    51    24    72    1
    52    24    73    1
    53    25    26    1
    54    25    74    1
    55    25    75    1
    56    26    76    1
    57    26    77    1
    58    27    28   ar
    59    27    32   ar
    60    28    29   ar
    61    28    78    1
    62    29    30   ar
    63    29    79    1
    64    30    31   ar
    65    30    34    1
    66    31    32   ar
    67    31    80    1
    68    32    33    1
    69    34    35    1
    70    34    81    1
    71    35    36   ar
    72    35    40   ar
    73    36    37   ar
    74    36    82    1
    75    37    38   ar
    76    37    83    1
    77    38    39   ar
    78    38    41    1
    79    39    40   ar
    80    39    84    1
    81    40    85    1
    82    41    42   ar
    83    41    46   ar
    84    42    43   ar
    85    42    86    1
    86    43    44   ar
    87    43    47    1
    88    44    45   ar
    89    44    87    1
    90    45    46   ar
    91    45    88    1
    92    46    89    1
    93    47    48    1
    94    47    49    1
    95    48    90    1
    96    49    91    1
    97    49    92    1
    98    50    51    1
    99    50    93    1
   100    50    94    1
   101    51    95    1
   102    51    96    1
   103    52    97    1
   104    52    98    1
   105    52    99    1
   106    53   100    1
   107    53   101    1
   108    53   102    1
@<TRIPOS>SUBSTRUCTURE
     1 UNL         1 TEMP              0 ****  ****    0 ROOT


##########                                Name:    ZINC001191196975
##########                DOCK_Rotatable_Bonds:                  14
##########                         Heavy_Atoms:                  24
##########                    Molecular_Weight:             339.438
##########                DOCK_Rotatable_Bonds:                  14
##########                       Formal_Charge:          0.00999969
##########                     HBond_Acceptors:                   8
##########                        HBond_Donors:                   4
##########                         Heavy_Atoms:                  24
##########                          Grid_Score:          -35.730587
##########                     Grid_vdw_energy:          -33.063820
##########                      Grid_es_energy:           -2.666767
##########           Internal_energy_repulsive:           13.657071

@<TRIPOS>MOLECULE
ZINC001191196975
 53 53 1 0 0
SMALL
USER_CHARGES


@<TRIPOS>ATOM
      1 C1         -4.6926    1.8737   65.8082 C.2     1  ZINC001191196975   -0.1600
      2 C2         -5.8599    2.4010   66.0823 C.2     1  ZINC001191196975   -0.1800
      3 C3         -7.0792    1.5211   66.1838 C.3     1  ZINC001191196975    0.1500
      4 N4         -7.6269    1.2890   64.8451 N.am    1  ZINC001191196975   -0.7300
      5 C5         -8.2841    0.1438   64.5752 C.2     1  ZINC001191196975    0.5100
      6 O6         -8.4235   -0.6939   65.4410 O.2     1  ZINC001191196975   -0.5200
      7 C7         -8.8459   -0.0958   63.1974 C.3     1  ZINC001191196975    0.0300
      8 N8        -10.3109    0.0035   63.2420 N.3     1  ZINC001191196975   -0.5100
      9 C9        -10.7355    1.1919   63.9940 C.3     1  ZINC001191196975    0.0200
     10 C10       -10.8798    0.0066   61.8875 C.3     1  ZINC001191196975    0.0700
     11 H11       -10.6058    0.9162   61.3531 H       1  ZINC001191196975    0.0600
     12 C12       -12.4206   -0.1703   61.9311 C.3     1  ZINC001191196975   -0.1200
     13 C13       -12.7336   -0.8119   60.5629 C.3     1  ZINC001191196975    0.1000
     14 N14       -11.4969   -1.4478   60.0857 N.am    1  ZINC001191196975   -0.6200
     15 C15       -11.3497   -2.0991   58.9151 C.2     1  ZINC001191196975    0.5300
     16 O16       -10.2787   -2.5880   58.6237 O.2     1  ZINC001191196975   -0.5400
     17 C17       -12.5157   -2.2200   57.9682 C.3     1  ZINC001191196975   -0.1300
     18 C18       -12.2378   -3.3334   56.9562 C.3     1  ZINC001191196975   -0.1000
     19 C19       -13.4219   -3.4564   55.9953 C.3     1  ZINC001191196975   -0.1300
     20 C20       -13.1743   -4.6144   55.0264 C.3     1  ZINC001191196975    0.1400
     21 N21       -12.0817   -4.2640   54.1155 N.am    1  ZINC001191196975   -0.7500
     22 C22       -12.3495   -3.6462   52.9480 C.2     1  ZINC001191196975    0.7000
     23 N23       -11.3442   -3.3225   52.1108 N.am    1  ZINC001191196975   -0.8700
     24 O24       -13.4981   -3.3810   52.6501 O.2     1  ZINC001191196975   -0.5900
     25 C25       -10.4433   -1.2534   61.0992 C.3     1  ZINC001191196975    0.1100
     26 H26        -4.6040    0.8082   65.6547 H       1  ZINC001191196975    0.1000
     27 H27        -3.8196    2.5048   65.7310 H       1  ZINC001191196975    0.1000
     28 H28        -5.9486    3.4664   66.2358 H       1  ZINC001191196975    0.1200
     29 H29        -6.8026    0.5676   66.6337 H       1  ZINC001191196975    0.0800
     30 H30        -7.8301    2.0110   66.8037 H       1  ZINC001191196975    0.0700
     31 H31        -7.5164    1.9595   64.1530 H       1  ZINC001191196975    0.4000
     32 H32        -8.4519    0.6521   62.5093 H       1  ZINC001191196975    0.0700
     33 H33        -8.5594   -1.0904   62.8560 H       1  ZINC001191196975    0.1100
     34 H34       -10.2506    2.0761   63.5802 H       1  ZINC001191196975    0.0200
     35 H35       -11.8172    1.3020   63.9189 H       1  ZINC001191196975    0.0700
     36 H36       -10.4536    1.0792   65.0409 H       1  ZINC001191196975    0.0900
     37 H37       -12.7096   -0.8360   62.7444 H       1  ZINC001191196975    0.0900
     38 H38       -12.9171    0.7954   62.0268 H       1  ZINC001191196975    0.0800
     39 H39       -13.5165   -1.5620   60.6757 H       1  ZINC001191196975    0.0700
     40 H40       -13.0518   -0.0442   59.8575 H       1  ZINC001191196975    0.0700
     41 H41       -13.4180   -2.4581   58.5317 H       1  ZINC001191196975    0.0900
     42 H42       -12.6550   -1.2763   57.4410 H       1  ZINC001191196975    0.0900
     43 H43       -11.3357   -3.0951   56.3927 H       1  ZINC001191196975    0.0800
     44 H44       -12.0982   -4.2771   57.4835 H       1  ZINC001191196975    0.0800
     45 H45       -14.3326   -3.6464   56.5634 H       1  ZINC001191196975    0.0700
     46 H46       -13.5313   -2.5292   55.4329 H       1  ZINC001191196975    0.0700
     47 H47       -12.9055   -5.5081   55.5894 H       1  ZINC001191196975    0.0700
     48 H48       -14.0798   -4.8063   54.4507 H       1  ZINC001191196975    0.0700
     49 H49       -11.1655   -4.4766   54.3527 H       1  ZINC001191196975    0.4000
     50 H50       -11.5368   -2.8768   51.2710 H       1  ZINC001191196975    0.4000
     51 H51       -10.4280   -3.5352   52.3481 H       1  ZINC001191196975    0.4200
     52 H52        -9.4799   -1.0860   60.6176 H       1  ZINC001191196975    0.0800
     53 H53       -10.3916   -2.1164   61.7629 H       1  ZINC001191196975    0.0800
@<TRIPOS>BOND
     1     1     2    2
     2     1    26    1
     3     1    27    1
     4     2     3    1
     5     2    28    1
     6     3     4    1
     7     3    29    1
     8     3    30    1
     9     4     5   am
    10     4    31    1
    11     5     6    2
    12     5     7    1
    13     7     8    1
    14     7    32    1
    15     7    33    1
    16     8     9    1
    17     8    10    1
    18     9    34    1
    19     9    35    1
    20     9    36    1
    21    10    11    1
    22    10    25    1
    23    10    12    1
    24    12    13    1
    25    12    37    1
    26    12    38    1
    27    13    14    1
    28    13    39    1
    29    13    40    1
    30    14    15   am
    31    14    25    1
    32    15    16    2
    33    15    17    1
    34    17    18    1
    35    17    41    1
    36    17    42    1
    37    18    19    1
    38    18    43    1
    39    18    44    1
    40    19    20    1
    41    19    45    1
    42    19    46    1
    43    20    21    1
    44    20    47    1
    45    20    48    1
    46    21    22   am
    47    21    49    1
    48    22    23   am
    49    22    24    2
    50    23    50    1
    51    23    51    1
    52    25    52    1
    53    25    53    1
@<TRIPOS>SUBSTRUCTURE
     1 ZINC001191196975        1 TEMP              0 ****  ****    0 ROOT


##########                                Name:    ZINC000004598904
##########                DOCK_Rotatable_Bonds:                  13
##########                         Heavy_Atoms:                  30
##########                    Molecular_Weight:             412.442
##########                DOCK_Rotatable_Bonds:                  13
##########                       Formal_Charge:          -0.0300005
##########                     HBond_Acceptors:                   8
##########                        HBond_Donors:                   2
##########                         Heavy_Atoms:                  30
##########                          Grid_Score:          -35.710182
##########                     Grid_vdw_energy:          -31.311481
##########                      Grid_es_energy:           -4.398702
##########           Internal_energy_repulsive:           24.210548

@<TRIPOS>MOLECULE
ZINC000004598904
 54 55 1 0 0
SMALL
USER_CHARGES


@<TRIPOS>ATOM
      1 C1          0.6005    2.4940   63.9896 C.3     1  ZINC000004598904   -0.1500
      2 C2          0.2823    2.2806   65.4709 C.3     1  ZINC000004598904    0.0600
      3 O3         -1.0973    2.6532   65.7279 O.3     1  ZINC000004598904   -0.3500
      4 C4         -2.0490    1.9790   65.0529 C.2     1  ZINC000004598904    0.5100
      5 O5         -1.7345    1.1036   64.2711 O.2     1  ZINC000004598904   -0.5100
      6 C6         -3.4720    2.3040   65.2628 C.ar    1  ZINC000004598904   -0.1500
      7 C7         -4.4610    1.6013   64.5679 C.ar    1  ZINC000004598904   -0.0400
      8 C8         -5.7883    1.9075   64.7662 C.ar    1  ZINC000004598904   -0.1400
      9 C9         -6.1462    2.9147   65.6571 C.ar    1  ZINC000004598904    0.1800
     10 N10        -7.4915    3.2216   65.8557 N.am    1  ZINC000004598904   -0.6700
     11 C11        -8.3000    2.3384   66.4744 C.2     1  ZINC000004598904    0.5200
     12 O12        -7.8572    1.2766   66.8583 O.2     1  ZINC000004598904   -0.5100
     13 C13        -9.7542    2.6702   66.6891 C.3     1  ZINC000004598904   -0.1300
     14 C14       -10.4033    3.0107   65.3461 C.3     1  ZINC000004598904   -0.1300
     15 C15       -10.4530    1.7753   64.4845 C.2     1  ZINC000004598904    0.5200
     16 O16       -11.1000    0.8133   64.8407 O.2     1  ZINC000004598904   -0.5100
     17 N17        -9.7786    1.7394   63.3182 N.am    1  ZINC000004598904   -0.6700
     18 C18        -9.8247    0.5965   62.5212 C.ar    1  ZINC000004598904    0.1800
     19 C19        -8.8870   -0.4153   62.7038 C.ar    1  ZINC000004598904   -0.1400
     20 C20        -8.9295   -1.5452   61.9188 C.ar    1  ZINC000004598904   -0.0300
     21 C21        -9.9166   -1.6756   60.9374 C.ar    1  ZINC000004598904   -0.1500
     22 C22        -9.9656   -2.8848   60.0946 C.2     1  ZINC000004598904    0.5100
     23 O23        -9.1592   -3.7773   60.2654 O.2     1  ZINC000004598904   -0.5100
     24 O24       -10.9048   -2.9997   59.1352 O.3     1  ZINC000004598904   -0.3600
     25 C25       -10.6241   -3.9159   58.0444 C.3     1  ZINC000004598904    0.0600
     26 C26       -11.4179   -3.4936   56.8065 C.3     1  ZINC000004598904   -0.1500
     27 C27       -10.8573   -0.6573   60.7569 C.ar    1  ZINC000004598904   -0.0400
     28 C28       -10.8117    0.4676   61.5489 C.ar    1  ZINC000004598904   -0.1600
     29 C29        -5.1646    3.6161   66.3504 C.ar    1  ZINC000004598904   -0.1600
     30 C30        -3.8356    3.3115   66.1613 C.ar    1  ZINC000004598904   -0.0300
     31 H31         0.4539    3.5434   63.7339 H       1  ZINC000004598904    0.0700
     32 H32         1.6363    2.2142   63.7965 H       1  ZINC000004598904    0.0800
     33 H33        -0.0617    1.8762   63.3831 H       1  ZINC000004598904    0.0700
     34 H34         0.4289    1.2312   65.7265 H       1  ZINC000004598904    0.0700
     35 H35         0.9446    2.8984   66.0774 H       1  ZINC000004598904    0.0700
     36 H36        -4.1839    0.8197   63.8760 H       1  ZINC000004598904    0.1400
     37 H37        -6.5528    1.3654   64.2295 H       1  ZINC000004598904    0.1400
     38 H38        -7.8457    4.0709   65.5486 H       1  ZINC000004598904    0.4200
     39 H39       -10.2613    1.8123   67.1306 H       1  ZINC000004598904    0.1100
     40 H40        -9.8366    3.5256   67.3596 H       1  ZINC000004598904    0.1100
     41 H41       -11.4159    3.3772   65.5145 H       1  ZINC000004598904    0.1100
     42 H42        -9.8172    3.7804   64.8440 H       1  ZINC000004598904    0.1100
     43 H43        -9.2612    2.5089   63.0334 H       1  ZINC000004598904    0.4200
     44 H44        -8.1249   -0.3139   63.4623 H       1  ZINC000004598904    0.1400
     45 H45        -8.2010   -2.3297   62.0606 H       1  ZINC000004598904    0.1400
     46 H46        -9.5583   -3.8947   57.8171 H       1  ZINC000004598904    0.0700
     47 H47       -10.9137   -4.9259   58.3345 H       1  ZINC000004598904    0.0700
     48 H48       -11.2072   -4.1813   55.9876 H       1  ZINC000004598904    0.0800
     49 H49       -12.4838   -3.5148   57.0337 H       1  ZINC000004598904    0.0700
     50 H50       -11.1284   -2.4836   56.5163 H       1  ZINC000004598904    0.0700
     51 H51       -11.6209   -0.7545   59.9995 H       1  ZINC000004598904    0.1400
     52 H52       -11.5383    1.2547   61.4104 H       1  ZINC000004598904    0.1400
     53 H53        -5.4459    4.3972   67.0410 H       1  ZINC000004598904    0.1400
     54 H54        -3.0742    3.8562   66.6997 H       1  ZINC000004598904    0.1400
@<TRIPOS>BOND
     1     1     2    1
     2     1    31    1
     3     1    32    1
     4     1    33    1
     5     2     3    1
     6     2    34    1
     7     2    35    1
     8     3     4    1
     9     4     5    2
    10     4     6    1
    11     6    30   ar
    12     6     7   ar
    13     7     8   ar
    14     7    36    1
    15     8     9   ar
    16     8    37    1
    17     9    10    1
    18     9    29   ar
    19    10    11   am
    20    10    38    1
    21    11    12    2
    22    11    13    1
    23    13    14    1
    24    13    39    1
    25    13    40    1
    26    14    15    1
    27    14    41    1
    28    14    42    1
    29    15    16    2
    30    15    17   am
    31    17    18    1
    32    17    43    1
    33    18    28   ar
    34    18    19   ar
    35    19    20   ar
    36    19    44    1
    37    20    21   ar
    38    20    45    1
    39    21    22    1
    40    21    27   ar
    41    22    23    2
    42    22    24    1
    43    24    25    1
    44    25    26    1
    45    25    46    1
    46    25    47    1
    47    26    48    1
    48    26    49    1
    49    26    50    1
    50    27    28   ar
    51    27    51    1
    52    28    52    1
    53    29    30   ar
    54    29    53    1
    55    30    54    1
@<TRIPOS>SUBSTRUCTURE
     1 ZINC000004598904        1 TEMP              0 ****  ****    0 ROOT


##########                                Name:    ZINC000066361645
##########                DOCK_Rotatable_Bonds:                   8
##########                         Heavy_Atoms:                  27
##########                    Molecular_Weight:             392.519
##########                DOCK_Rotatable_Bonds:                   8
##########                       Formal_Charge:           0.0100004
##########                     HBond_Acceptors:                   7
##########                        HBond_Donors:                   2
##########                         Heavy_Atoms:                  27
##########                          Grid_Score:          -35.686615
##########                     Grid_vdw_energy:          -34.273247
##########                      Grid_es_energy:           -1.413368
##########           Internal_energy_repulsive:           10.223140

@<TRIPOS>MOLECULE
ZINC000066361645
 55 57 1 0 0
SMALL
USER_CHARGES


@<TRIPOS>ATOM
      1 C1        -15.7708   -3.1123   59.2763 C.3     1  ZINC000066361645   -0.1400
      2 S2        -14.9984   -2.2831   57.8599 S.3     1  ZINC000066361645   -0.1100
      3 C3        -13.2889   -2.6566   58.0658 C.ar    1  ZINC000066361645   -0.1200
      4 C4        -12.6498   -2.3511   59.2580 C.ar    1  ZINC000066361645   -0.1100
      5 C5        -11.3040   -2.6455   59.4215 C.ar    1  ZINC000066361645    0.0500
      6 C6        -10.5948   -3.2489   58.3901 C.ar    1  ZINC000066361645    0.0700
      7 C7        -11.2317   -3.5538   57.1960 C.ar    1  ZINC000066361645   -0.1100
      8 C8        -12.5775   -3.2651   57.0322 C.ar    1  ZINC000066361645    0.1800
      9 N9        -13.2203   -3.5744   55.8240 N.am    1  ZINC000066361645   -0.6600
     10 C10       -12.9184   -2.8871   54.7048 C.2     1  ZINC000066361645    0.5100
     11 O11       -12.0908   -2.0009   54.7419 O.2     1  ZINC000066361645   -0.5000
     12 C12       -13.6088   -3.2193   53.4072 C.3     1  ZINC000066361645   -0.1500
     13 C13       -14.7218   -2.2023   53.1467 C.3     1  ZINC000066361645    0.1600
     14 H14       -14.5169   -1.2886   53.7045 H       1  ZINC000066361645    0.1000
     15 C15       -16.0620   -2.7860   53.5985 C.3     1  ZINC000066361645   -0.1600
     16 N16       -14.7797   -1.8978   51.7148 N.am    1  ZINC000066361645   -0.7200
     17 C17       -13.7639   -1.2372   51.1247 C.2     1  ZINC000066361645    0.5300
     18 O18       -12.8014   -0.8958   51.7789 O.2     1  ZINC000066361645   -0.5400
     19 C19       -13.8243   -0.9224   49.6522 C.3     1  ZINC000066361645   -0.1100
     20 C20       -15.0024   -1.6659   49.0196 C.3     1  ZINC000066361645   -0.1100
     21 C21       -15.0637   -1.3463   47.5246 C.3     1  ZINC000066361645   -0.1200
     22 C22       -15.2489    0.1602   47.3324 C.3     1  ZINC000066361645   -0.1200
     23 C23       -14.0707    0.9037   47.9649 C.3     1  ZINC000066361645   -0.1200
     24 C24       -14.0094    0.5842   49.4599 C.3     1  ZINC000066361645   -0.1000
     25 O25        -9.2745   -3.5519   58.5368 O.3     1  ZINC000066361645   -0.3000
     26 C26        -8.5781   -2.8969   59.6023 C.3     1  ZINC000066361645    0.0200
     27 C27        -9.4444   -2.9822   60.8663 C.3     1  ZINC000066361645    0.0200
     28 O28       -10.6928   -2.3345   60.5982 O.3     1  ZINC000066361645   -0.3100
     29 H29       -15.5667   -4.1819   59.2267 H       1  ZINC000066361645    0.0900
     30 H30       -15.3619   -2.7070   60.2019 H       1  ZINC000066361645    0.0900
     31 H31       -16.8478   -2.9464   59.2516 H       1  ZINC000066361645    0.1100
     32 H32       -13.2007   -1.8831   60.0605 H       1  ZINC000066361645    0.1400
     33 H33       -10.6791   -4.0203   56.3940 H       1  ZINC000066361645    0.1600
     34 H34       -13.8821   -4.2830   55.7944 H       1  ZINC000066361645    0.4100
     35 H35       -12.8864   -3.1842   52.5917 H       1  ZINC000066361645    0.1000
     36 H36       -14.0379   -4.2194   53.4696 H       1  ZINC000066361645    0.1200
     37 H37       -16.2669   -3.6998   53.0407 H       1  ZINC000066361645    0.0600
     38 H38       -16.0190   -3.0126   54.6637 H       1  ZINC000066361645    0.0700
     39 H39       -16.8549   -2.0614   53.4128 H       1  ZINC000066361645    0.0700
     40 H40       -15.5490   -2.1718   51.1913 H       1  ZINC000066361645    0.4000
     41 H41       -12.8967   -1.2383   49.1747 H       1  ZINC000066361645    0.1000
     42 H42       -14.8705   -2.7391   49.1566 H       1  ZINC000066361645    0.0600
     43 H43       -15.9300   -1.3499   49.4970 H       1  ZINC000066361645    0.0700
     44 H44       -14.1361   -1.6622   47.0473 H       1  ZINC000066361645    0.0600
     45 H45       -15.9030   -1.8759   47.0739 H       1  ZINC000066361645    0.0700
     46 H46       -15.2925    0.3879   46.2673 H       1  ZINC000066361645    0.0600
     47 H47       -16.1764    0.4762   47.8097 H       1  ZINC000066361645    0.0600
     48 H48       -13.1432    0.5877   47.4875 H       1  ZINC000066361645    0.0600
     49 H49       -14.2026    1.9770   47.8279 H       1  ZINC000066361645    0.0700
     50 H50       -14.9370    0.9001   49.9373 H       1  ZINC000066361645    0.0700
     51 H51       -13.1701    1.1138   49.9105 H       1  ZINC000066361645    0.0700
     52 H52        -7.6233   -3.3927   59.7770 H       1  ZINC000066361645    0.1300
     53 H53        -8.4083   -1.8519   59.3429 H       1  ZINC000066361645    0.0800
     54 H54        -9.6198   -4.0272   61.1218 H       1  ZINC000066361645    0.0800
     55 H55        -8.9400   -2.4807   61.6923 H       1  ZINC000066361645    0.1200
@<TRIPOS>BOND
     1     1     2    1
     2     1    29    1
     3     1    30    1
     4     1    31    1
     5     2     3    1
     6     3     8   ar
     7     3     4   ar
     8     4     5   ar
     9     4    32    1
    10     5    28    1
    11     5     6   ar
    12     6     7   ar
    13     6    25    1
    14     7     8   ar
    15     7    33    1
    16     8     9    1
    17     9    10   am
    18     9    34    1
    19    10    11    2
    20    10    12    1
    21    12    13    1
    22    12    35    1
    23    12    36    1
    24    13    14    1
    25    13    15    1
    26    13    16    1
    27    15    37    1
    28    15    38    1
    29    15    39    1
    30    16    17   am
    31    16    40    1
    32    17    18    2
    33    17    19    1
    34    19    24    1
    35    19    20    1
    36    19    41    1
    37    20    21    1
    38    20    42    1
    39    20    43    1
    40    21    22    1
    41    21    44    1
    42    21    45    1
    43    22    23    1
    44    22    46    1
    45    22    47    1
    46    23    24    1
    47    23    48    1
    48    23    49    1
    49    24    50    1
    50    24    51    1
    51    25    26    1
    52    26    27    1
    53    26    52    1
    54    26    53    1
    55    27    28    1
    56    27    54    1
    57    27    55    1
@<TRIPOS>SUBSTRUCTURE
     1 ZINC000066361645        1 TEMP              0 ****  ****    0 ROOT


##########                                Name:    ZINC000426805817
##########                DOCK_Rotatable_Bonds:                   6
##########                         Heavy_Atoms:                  26
##########                    Molecular_Weight:             412.286
##########                DOCK_Rotatable_Bonds:                   6
##########                       Formal_Charge:          -0.0100001
##########                     HBond_Acceptors:                   5
##########                        HBond_Donors:                   4
##########                         Heavy_Atoms:                  26
##########                          Grid_Score:          -35.680649
##########                     Grid_vdw_energy:          -30.588520
##########                      Grid_es_energy:           -5.092129
##########           Internal_energy_repulsive:            4.639859

@<TRIPOS>MOLECULE
ZINC000426805817
 44 47 1 0 0
SMALL
USER_CHARGES


@<TRIPOS>ATOM
      1 O1        -13.9959   -1.9889   61.1415 O.co2   1  ZINC000426805817   -0.6300
      2 C2        -13.8167   -0.7871   61.2419 C.2     1  ZINC000426805817    0.5000
      3 O3        -14.7521   -0.0176   61.1026 O.co2   1  ZINC000426805817   -0.6800
      4 C4        -12.4404   -0.2531   61.5442 C.3     1  ZINC000426805817   -0.0500
      5 H5        -11.9087   -0.9591   62.1822 H       1  ZINC000426805817    0.1300
      6 C6        -11.6677   -0.0652   60.2370 C.3     1  ZINC000426805817   -0.0500
      7 C7        -10.6772   -1.1891   60.0729 C.2     1  ZINC000426805817   -0.1900
      8 C8         -9.4645   -1.2741   60.6421 C.2     1  ZINC000426805817    0.0500
      9 N9         -8.8513   -2.4368   60.2621 N.pl3   1  ZINC000426805817   -0.5900
     10 C10        -9.6757   -3.1467   59.4172 C.ar    1  ZINC000426805817    0.1100
     11 C11        -9.5480   -4.3637   58.7567 C.ar    1  ZINC000426805817   -0.1200
     12 C12       -10.5724   -4.8236   57.9587 C.ar    1  ZINC000426805817   -0.0700
     13 C13       -11.7373   -4.0832   57.8048 C.ar    1  ZINC000426805817   -0.1100
     14 Br14      -13.1285   -4.7373   56.7036 Br      1  ZINC000426805817   -0.0400
     15 C15       -11.8851   -2.8756   58.4502 C.ar    1  ZINC000426805817   -0.0400
     16 C16       -10.8580   -2.3991   59.2670 C.ar    1  ZINC000426805817   -0.1000
     17 N17       -12.5569    1.0385   62.2342 N.4     1  ZINC000426805817   -0.4800
     18 H18       -11.6472    1.4708   62.2948 H       1  ZINC000426805817    0.4000
     19 H19       -13.1814    1.6403   61.7184 H       1  ZINC000426805817    0.4200
     20 C20       -13.0887    0.8250   63.5868 C.3     1  ZINC000426805817    0.0400
     21 C21       -12.1865    1.4926   64.5925 C.ar    1  ZINC000426805817   -0.1600
     22 C22       -10.8481    1.1250   64.6812 C.ar    1  ZINC000426805817    0.1100
     23 N23       -10.0696    0.2100   64.0085 N.pl3   1  ZINC000426805817   -0.5900
     24 C24        -8.7896    0.2440   64.4912 C.2     1  ZINC000426805817    0.0600
     25 C25        -8.6935    1.1585   65.4691 C.2     1  ZINC000426805817   -0.2000
     26 C26       -10.0202    1.7594   65.6257 C.ar    1  ZINC000426805817   -0.1100
     27 C27       -10.5460    2.7465   66.4610 C.ar    1  ZINC000426805817   -0.0400
     28 C28       -11.8640    3.0920   66.3568 C.ar    1  ZINC000426805817   -0.1500
     29 C29       -12.6835    2.4730   65.4232 C.ar    1  ZINC000426805817   -0.0700
     30 H30       -12.3647   -0.0698   59.3991 H       1  ZINC000426805817    0.1200
     31 H31       -11.1366    0.8863   60.2626 H       1  ZINC000426805817    0.0900
     32 H32        -9.0362   -0.5343   61.3020 H       1  ZINC000426805817    0.1700
     33 H33        -7.9676   -2.7190   60.5455 H       1  ZINC000426805817    0.4200
     34 H34        -8.6463   -4.9476   58.8688 H       1  ZINC000426805817    0.1300
     35 H35       -10.4684   -5.7692   57.4474 H       1  ZINC000426805817    0.1400
     36 H36       -12.7922   -2.3024   58.3284 H       1  ZINC000426805817    0.1400
     37 H37       -14.0889    1.2527   63.6557 H       1  ZINC000426805817    0.1500
     38 H38       -13.1357   -0.2441   63.7942 H       1  ZINC000426805817    0.1300
     39 H39       -10.3821   -0.3724   63.2985 H       1  ZINC000426805817    0.4300
     40 H40        -7.9772   -0.3735   64.1378 H       1  ZINC000426805817    0.1800
     41 H41        -7.8062    1.4043   66.0338 H       1  ZINC000426805817    0.1500
     42 H42        -9.9134    3.2351   67.1873 H       1  ZINC000426805817    0.1300
     43 H43       -12.2703    3.8558   67.0034 H       1  ZINC000426805817    0.1300
     44 H44       -13.7232    2.7569   65.3529 H       1  ZINC000426805817    0.1300
@<TRIPOS>BOND
     1     1     2   ar
     2     2     3   ar
     3     2     4    1
     4     4     5    1
     5     4     6    1
     6     4    17    1
     7     6     7    1
     8     6    30    1
     9     6    31    1
    10     7    16    1
    11     7     8    2
    12     8     9    1
    13     8    32    1
    14     9    10    1
    15     9    33    1
    16    10    16   ar
    17    10    11   ar
    18    11    12   ar
    19    11    34    1
    20    12    13   ar
    21    12    35    1
    22    13    14    1
    23    13    15   ar
    24    15    16   ar
    25    15    36    1
    26    17    18    1
    27    17    19    1
    28    17    20    1
    29    20    21    1
    30    20    37    1
    31    20    38    1
    32    21    29   ar
    33    21    22   ar
    34    22    26   ar
    35    22    23    1
    36    23    24    1
    37    23    39    1
    38    24    25    2
    39    24    40    1
    40    25    26    1
    41    25    41    1
    42    26    27   ar
    43    27    28   ar
    44    27    42    1
    45    28    29   ar
    46    28    43    1
    47    29    44    1
@<TRIPOS>SUBSTRUCTURE
     1 ZINC000426805817        1 TEMP              0 ****  ****    0 ROOT


##########                                Name:    ZINC000375302598
##########                DOCK_Rotatable_Bonds:                   8
##########                         Heavy_Atoms:                  27
##########                    Molecular_Weight:             368.479
##########                DOCK_Rotatable_Bonds:                   8
##########                       Formal_Charge:               -0.02
##########                     HBond_Acceptors:                   6
##########                        HBond_Donors:                   1
##########                         Heavy_Atoms:                  27
##########                          Grid_Score:          -35.680069
##########                     Grid_vdw_energy:          -35.641499
##########                      Grid_es_energy:           -0.038570
##########           Internal_energy_repulsive:           12.108781

@<TRIPOS>MOLECULE
ZINC000375302598
 55 58 1 0 0
SMALL
USER_CHARGES


@<TRIPOS>ATOM
      1 C1         -9.4988    1.1218   64.5804 C.3     1  ZINC000375302598   -0.1500
      2 C2         -8.6268   -0.0061   64.0250 C.3     1  ZINC000375302598   -0.0300
      3 C3         -9.1743   -0.4559   62.6950 C.2     1  ZINC000375302598    0.1800
      4 N4        -10.1030    0.1436   61.9897 N.2     1  ZINC000375302598   -0.4700
      5 C5        -10.2651   -0.6114   60.8884 C.2     1  ZINC000375302598    0.1800
      6 C6        -11.2246   -0.3445   59.7574 C.3     1  ZINC000375302598    0.1500
      7 N7        -12.1568   -1.4727   59.6296 N.3     1  ZINC000375302598   -0.5300
      8 C8        -13.3749   -1.2406   60.4162 C.3     1  ZINC000375302598    0.0500
      9 C9        -14.2549   -2.4920   60.3773 C.3     1  ZINC000375302598   -0.1100
     10 C10       -14.6164   -2.8108   58.9239 C.3     1  ZINC000375302598   -0.1300
     11 C11       -13.3296   -3.0003   58.1159 C.3     1  ZINC000375302598    0.1500
     12 H12       -12.7722   -3.8486   58.5131 H       1  ZINC000375302598    0.1000
     13 N13       -13.6659   -3.2501   56.7121 N.am    1  ZINC000375302598   -0.7300
     14 C14       -13.4725   -4.4732   56.1801 C.2     1  ZINC000375302598    0.5200
     15 O15       -13.0186   -5.3667   56.8631 O.2     1  ZINC000375302598   -0.5300
     16 C16       -13.8200   -4.7305   54.7365 C.3     1  ZINC000375302598   -0.1100
     17 C17       -13.0185   -3.7826   53.8422 C.3     1  ZINC000375302598   -0.1200
     18 H18       -13.6008   -3.0219   53.3223 H       1  ZINC000375302598    0.1200
     19 C19       -11.7995   -4.3570   53.1175 C.3     1  ZINC000375302598   -0.1700
     20 C20       -11.6086   -3.4032   54.2994 C.3     1  ZINC000375302598   -0.1100
     21 H21       -11.2518   -3.8290   55.2373 H       1  ZINC000375302598    0.1100
     22 C22       -11.1304   -2.0066   53.9963 C.ar    1  ZINC000375302598   -0.0500
     23 C23       -11.5378   -0.9494   54.7885 C.ar    1  ZINC000375302598   -0.1200
     24 C24       -11.0992    0.3317   54.5105 C.ar    1  ZINC000375302598   -0.1200
     25 C25       -10.2529    0.5557   53.4408 C.ar    1  ZINC000375302598   -0.1300
     26 C26        -9.8449   -0.5015   52.6491 C.ar    1  ZINC000375302598   -0.1200
     27 C27       -10.2800   -1.7833   52.9297 C.ar    1  ZINC000375302598   -0.1100
     28 C28       -12.4764   -1.7342   58.2204 C.3     1  ZINC000375302598    0.0500
     29 N29        -9.4420   -1.6129   60.9785 N.2     1  ZINC000375302598   -0.3800
     30 O30        -8.8020   -1.5391   62.0063 O.3     1  ZINC000375302598    0.0800
     31 H31       -10.5193    0.7616   64.7106 H       1  ZINC000375302598    0.0600
     32 H32        -9.1027    1.4472   65.5422 H       1  ZINC000375302598    0.0800
     33 H33        -9.4955    1.9602   63.8838 H       1  ZINC000375302598    0.0600
     34 H34        -7.6063    0.3541   63.8946 H       1  ZINC000375302598    0.1100
     35 H35        -8.6300   -0.8445   64.7216 H       1  ZINC000375302598    0.1000
     36 H36       -11.7844    0.5678   59.9634 H       1  ZINC000375302598    0.0700
     37 H37       -10.6672   -0.2267   58.8281 H       1  ZINC000375302598    0.1100
     38 H38       -13.1039   -1.0191   61.4485 H       1  ZINC000375302598    0.0800
     39 H39       -13.9234   -0.3977   59.9960 H       1  ZINC000375302598    0.0400
     40 H40       -13.7120   -3.3323   60.8100 H       1  ZINC000375302598    0.0700
     41 H41       -15.1662   -2.3139   60.9483 H       1  ZINC000375302598    0.0700
     42 H42       -15.2073   -3.7261   58.8879 H       1  ZINC000375302598    0.0700
     43 H43       -15.1930   -1.9872   58.5029 H       1  ZINC000375302598    0.0600
     44 H44       -14.0279   -2.5352   56.1655 H       1  ZINC000375302598    0.4000
     45 H45       -13.5767   -5.7623   54.4826 H       1  ZINC000375302598    0.1000
     46 H46       -14.8857   -4.5603   54.5833 H       1  ZINC000375302598    0.1000
     47 H47       -11.5686   -5.4101   53.2779 H       1  ZINC000375302598    0.1000
     48 H48       -11.5796   -3.9738   52.1210 H       1  ZINC000375302598    0.1000
     49 H49       -12.1989   -1.1244   55.6244 H       1  ZINC000375302598    0.1200
     50 H50       -11.4180    1.1577   55.1290 H       1  ZINC000375302598    0.1200
     51 H51        -9.9108    1.5567   53.2231 H       1  ZINC000375302598    0.1200
     52 H52        -9.1840   -0.3265   51.8131 H       1  ZINC000375302598    0.1200
     53 H53        -9.9612   -2.6093   52.3112 H       1  ZINC000375302598    0.1200
     54 H54       -13.0291   -0.8889   57.8105 H       1  ZINC000375302598    0.0400
     55 H55       -11.5529   -1.8712   57.6579 H       1  ZINC000375302598    0.0900
@<TRIPOS>BOND
     1     1     2    1
     2     1    31    1
     3     1    32    1
     4     1    33    1
     5     2     3    1
     6     2    34    1
     7     2    35    1
     8     3    30    1
     9     3     4    2
    10     4     5    1
    11     5     6    1
    12     5    29    2
    13     6     7    1
    14     6    36    1
    15     6    37    1
    16     7    28    1
    17     7     8    1
    18     8     9    1
    19     8    38    1
    20     8    39    1
    21     9    10    1
    22     9    40    1
    23     9    41    1
    24    10    11    1
    25    10    42    1
    26    10    43    1
    27    11    12    1
    28    11    13    1
    29    11    28    1
    30    13    14   am
    31    13    44    1
    32    14    15    2
    33    14    16    1
    34    16    17    1
    35    16    45    1
    36    16    46    1
    37    17    18    1
    38    17    20    1
    39    17    19    1
    40    19    20    1
    41    19    47    1
    42    19    48    1
    43    20    21    1
    44    20    22    1
    45    22    27   ar
    46    22    23   ar
    47    23    24   ar
    48    23    49    1
    49    24    25   ar
    50    24    50    1
    51    25    26   ar
    52    25    51    1
    53    26    27   ar
    54    26    52    1
    55    27    53    1
    56    28    54    1
    57    28    55    1
    58    29    30    1
@<TRIPOS>SUBSTRUCTURE
     1 ZINC000375302598        1 TEMP              0 ****  ****    0 ROOT


##########                                Name:    ZINC001490207225
##########                DOCK_Rotatable_Bonds:                   7
##########                         Heavy_Atoms:                  24
##########                    Molecular_Weight:             334.378
##########                DOCK_Rotatable_Bonds:                   7
##########                       Formal_Charge:           -0.010001
##########                     HBond_Acceptors:                   9
##########                        HBond_Donors:                   3
##########                         Heavy_Atoms:                  24
##########                          Grid_Score:          -35.679386
##########                     Grid_vdw_energy:          -32.413879
##########                      Grid_es_energy:           -3.265507
##########           Internal_energy_repulsive:            6.113809

@<TRIPOS>MOLECULE
ZINC001490207225
 46 48 1 0 0
SMALL
USER_CHARGES


@<TRIPOS>ATOM
      1 C1        -15.1490   -3.4163   53.9486 C.3     1  ZINC001490207225    0.0900
      2 N2        -14.3185   -3.7243   55.1155 N.pl3   1  ZINC001490207225   -0.3600
      3 C3        -13.0072   -3.4626   55.2361 C.2     1  ZINC001490207225    0.1300
      4 C4        -12.6098   -3.9076   56.4810 C.2     1  ZINC001490207225   -0.3000
      5 C5        -11.2507   -3.8269   57.0465 C.2     1  ZINC001490207225    0.6200
      6 O6        -10.3240   -4.3765   56.4827 O.2     1  ZINC001490207225   -0.5400
      7 N7        -11.0354   -3.1441   58.1884 N.am    1  ZINC001490207225   -0.6200
      8 C8        -12.0433   -2.4331   58.9917 C.3     1  ZINC001490207225    0.1100
      9 C9        -11.3194   -1.2430   59.6427 C.3     1  ZINC001490207225   -0.1100
     10 H10       -11.5496   -0.3013   59.1443 H       1  ZINC001490207225    0.1000
     11 C11       -11.6652   -1.2033   61.1461 C.3     1  ZINC001490207225    0.1000
     12 N12       -10.3747   -0.9354   61.8219 N.am    1  ZINC001490207225   -0.6200
     13 C13       -10.1468   -0.1333   62.8808 C.2     1  ZINC001490207225    0.5300
     14 O14       -11.0653    0.4717   63.3920 O.2     1  ZINC001490207225   -0.5300
     15 C15        -8.7508    0.0116   63.4296 C.3     1  ZINC001490207225    0.1200
     16 N16        -8.8058    0.6732   64.7355 N.am    1  ZINC001490207225   -0.7400
     17 C17        -8.6973   -0.0545   65.8647 C.2     1  ZINC001490207225    0.7100
     18 N18        -8.7463    0.5543   67.0661 N.am    1  ZINC001490207225   -0.8600
     19 O19        -8.5552   -1.2603   65.7996 O.2     1  ZINC001490207225   -0.5900
     20 C20        -9.3918   -1.7490   61.0699 C.3     1  ZINC001490207225    0.1100
     21 C21        -9.8103   -1.5921   59.5669 C.3     1  ZINC001490207225   -0.0800
     22 C22        -8.9769   -0.5307   58.8457 C.3     1  ZINC001490207225   -0.1300
     23 C23        -9.7474   -2.9690   58.8793 C.3     1  ZINC001490207225    0.1000
     24 C24       -13.7497   -4.4544   57.1119 C.2     1  ZINC001490207225    0.0700
     25 N25       -14.7595   -4.3354   56.2946 N.2     1  ZINC001490207225   -0.2900
     26 H26       -15.5714   -2.4174   54.0567 H       1  ZINC001490207225    0.0800
     27 H27       -14.5380   -3.4567   53.0469 H       1  ZINC001490207225    0.0900
     28 H28       -15.9555   -4.1458   53.8740 H       1  ZINC001490207225    0.1000
     29 H29       -12.3786   -2.9909   54.4953 H       1  ZINC001490207225    0.1900
     30 H30       -12.8487   -2.0755   58.3501 H       1  ZINC001490207225    0.0900
     31 H31       -12.4427   -3.0941   59.7609 H       1  ZINC001490207225    0.0800
     32 H32       -12.3749   -0.4021   61.3515 H       1  ZINC001490207225    0.0900
     33 H33       -12.0704   -2.1626   61.4680 H       1  ZINC001490207225    0.0900
     34 H34        -8.2998   -0.9745   63.5405 H       1  ZINC001490207225    0.1000
     35 H35        -8.1513    0.6104   62.7439 H       1  ZINC001490207225    0.1000
     36 H36        -8.9203    1.6350   64.7876 H       1  ZINC001490207225    0.4100
     37 H37        -8.6670    0.0306   67.8788 H       1  ZINC001490207225    0.4000
     38 H38        -8.8608    1.5160   67.1181 H       1  ZINC001490207225    0.4200
     39 H39        -8.3844   -1.3600   61.2179 H       1  ZINC001490207225    0.0900
     40 H40        -9.4461   -2.7926   61.3801 H       1  ZINC001490207225    0.0800
     41 H41        -7.9264   -0.8209   58.8619 H       1  ZINC001490207225    0.0700
     42 H42        -9.3141   -0.4440   57.8128 H       1  ZINC001490207225    0.0600
     43 H43        -9.0966    0.4287   59.3487 H       1  ZINC001490207225    0.0600
     44 H44        -9.6301   -3.7548   59.6255 H       1  ZINC001490207225    0.0800
     45 H45        -8.9178   -2.9968   58.1727 H       1  ZINC001490207225    0.0900
     46 H46       -13.7805   -4.8906   58.0994 H       1  ZINC001490207225    0.2000
@<TRIPOS>BOND
     1     1     2    1
     2     1    26    1
     3     1    27    1
     4     1    28    1
     5     2    25    1
     6     2     3    1
     7     3     4    2
     8     3    29    1
     9     4     5    1
    10     4    24    1
    11     5     6    2
    12     5     7   am
    13     7    23    1
    14     7     8    1
    15     8     9    1
    16     8    30    1
    17     8    31    1
    18     9    10    1
    19     9    21    1
    20     9    11    1
    21    11    12    1
    22    11    32    1
    23    11    33    1
    24    12    13   am
    25    12    20    1
    26    13    14    2
    27    13    15    1
    28    15    16    1
    29    15    34    1
    30    15    35    1
    31    16    17   am
    32    16    36    1
    33    17    18   am
    34    17    19    2
    35    18    37    1
    36    18    38    1
    37    20    21    1
    38    20    39    1
    39    20    40    1
    40    21    22    1
    41    21    23    1
    42    22    41    1
    43    22    42    1
    44    22    43    1
    45    23    44    1
    46    23    45    1
    47    24    25    2
    48    24    46    1
@<TRIPOS>SUBSTRUCTURE
     1 ZINC001490207225        1 TEMP              0 ****  ****    0 ROOT


##########                                Name:    ZINC001362587626
##########                DOCK_Rotatable_Bonds:                   9
##########                         Heavy_Atoms:                  25
##########                    Molecular_Weight:             346.346
##########                DOCK_Rotatable_Bonds:                   9
##########                       Formal_Charge:        -4.02331e-07
##########                     HBond_Acceptors:                  10
##########                        HBond_Donors:                   2
##########                         Heavy_Atoms:                  25
##########                          Grid_Score:          -35.662109
##########                     Grid_vdw_energy:          -28.121691
##########                      Grid_es_energy:           -7.540417
##########           Internal_energy_repulsive:            9.318148

@<TRIPOS>MOLECULE
ZINC001362587626
 43 45 1 0 0
SMALL
USER_CHARGES


@<TRIPOS>ATOM
      1 C1         -8.4281    1.2916   65.3374 C.3     1  ZINC001362587626   -0.1600
      2 C2         -9.7475    1.6430   64.6469 C.3     1  ZINC001362587626    0.1300
      3 H3         -9.6975    2.6629   64.2655 H       1  ZINC001362587626    0.1200
      4 N4        -10.8464    1.5349   65.6096 N.am    1  ZINC001362587626   -0.7100
      5 C5        -11.9480    2.2975   65.4631 C.2     1  ZINC001362587626    0.5100
      6 O6        -12.0302    3.0720   64.5335 O.2     1  ZINC001362587626   -0.5000
      7 C7        -13.0778    2.1876   66.4546 C.3     1  ZINC001362587626    0.1000
      8 N8        -13.9094    1.0287   66.1206 N.pl3   1  ZINC001362587626   -0.3100
      9 C9        -14.5591    0.2336   66.9908 C.2     1  ZINC001362587626    0.1600
     10 N10       -15.1792   -0.6757   66.2790 N.2     1  ZINC001362587626   -0.3000
     11 N11       -14.9238   -0.4507   65.0365 N.2     1  ZINC001362587626   -0.0700
     12 N12       -14.1612    0.5818   64.9368 N.2     1  ZINC001362587626   -0.0700
     13 C13        -9.9854    0.6903   63.5039 C.2     1  ZINC001362587626    0.5100
     14 O14       -10.8901   -0.1156   63.5643 O.2     1  ZINC001362587626   -0.5200
     15 N15        -9.1932    0.7336   62.4143 N.am    1  ZINC001362587626   -0.6600
     16 C16        -9.4146   -0.1521   61.3516 C.ar    1  ZINC001362587626    0.1000
     17 C17       -10.1461    0.2592   60.2455 C.ar    1  ZINC001362587626   -0.1000
     18 C18       -10.3635   -0.6142   59.1982 C.ar    1  ZINC001362587626   -0.1900
     19 C19        -9.8516   -1.9024   59.2513 C.ar    1  ZINC001362587626    0.1200
     20 O20       -10.0664   -2.7620   58.2199 O.3     1  ZINC001362587626   -0.2800
     21 C21       -11.2499   -2.5619   57.4443 C.3     1  ZINC001362587626    0.0100
     22 C22       -11.7422   -3.8304   56.7223 C.3     1  ZINC001362587626    0.0200
     23 O23       -12.5427   -4.0535   57.9005 O.3     1  ZINC001362587626   -0.3700
     24 C24       -12.5524   -2.6577   58.2610 C.3     1  ZINC001362587626    0.0400
     25 C25        -9.1204   -2.3140   60.3559 C.ar    1  ZINC001362587626   -0.1300
     26 C26        -8.8977   -1.4399   61.4016 C.ar    1  ZINC001362587626   -0.0800
     27 H27        -8.4780    0.2717   65.7189 H       1  ZINC001362587626    0.0700
     28 H28        -7.6105    1.3720   64.6211 H       1  ZINC001362587626    0.0800
     29 H29        -8.2559    1.9807   66.1642 H       1  ZINC001362587626    0.0800
     30 H30       -10.7812    0.9146   66.3524 H       1  ZINC001362587626    0.4100
     31 H31       -12.6700    2.0651   67.4579 H       1  ZINC001362587626    0.1500
     32 H32       -13.6838    3.0927   66.4165 H       1  ZINC001362587626    0.1400
     33 H33       -14.5674    0.3264   68.0668 H       1  ZINC001362587626    0.2400
     34 H34        -8.4700    1.3780   62.3659 H       1  ZINC001362587626    0.4100
     35 H35       -10.5452    1.2618   60.2043 H       1  ZINC001362587626    0.1300
     36 H36       -10.9325   -0.2944   58.3377 H       1  ZINC001362587626    0.1400
     37 H37       -11.1955   -1.6817   56.8039 H       1  ZINC001362587626    0.0900
     38 H38       -12.3259   -3.6282   55.8243 H       1  ZINC001362587626    0.1000
     39 H39       -10.9656   -4.5797   56.5684 H       1  ZINC001362587626    0.1000
     40 H40       -12.4185   -2.4767   59.3275 H       1  ZINC001362587626    0.1000
     41 H41       -13.3835   -2.0973   57.8329 H       1  ZINC001362587626    0.1000
     42 H42        -8.7221   -3.3170   60.3966 H       1  ZINC001362587626    0.1400
     43 H43        -8.3279   -1.7602   62.2614 H       1  ZINC001362587626    0.1500
@<TRIPOS>BOND
     1     1     2    1
     2     1    27    1
     3     1    28    1
     4     1    29    1
     5     2     3    1
     6     2     4    1
     7     2    13    1
     8     4     5   am
     9     4    30    1
    10     5     6    2
    11     5     7    1
    12     7     8    1
    13     7    31    1
    14     7    32    1
    15     8    12    1
    16     8     9    1
    17     9    10    2
    18     9    33    1
    19    10    11    1
    20    11    12    2
    21    13    14    2
    22    13    15   am
    23    15    16    1
    24    15    34    1
    25    16    26   ar
    26    16    17   ar
    27    17    18   ar
    28    17    35    1
    29    18    19   ar
    30    18    36    1
    31    19    20    1
    32    19    25   ar
    33    20    21    1
    34    21    24    1
    35    21    22    1
    36    21    37    1
    37    22    23    1
    38    22    38    1
    39    22    39    1
    40    23    24    1
    41    24    40    1
    42    24    41    1
    43    25    26   ar
    44    25    42    1
    45    26    43    1
@<TRIPOS>SUBSTRUCTURE
     1 ZINC001362587626        1 TEMP              0 ****  ****    0 ROOT


##########                                Name:    ZINC000477669194
##########                DOCK_Rotatable_Bonds:                   6
##########                         Heavy_Atoms:                  26
##########                    Molecular_Weight:             387.483
##########                DOCK_Rotatable_Bonds:                   6
##########                       Formal_Charge:         4.47035e-07
##########                     HBond_Acceptors:                   8
##########                        HBond_Donors:                   2
##########                         Heavy_Atoms:                  26
##########                          Grid_Score:          -35.657730
##########                     Grid_vdw_energy:          -31.214136
##########                      Grid_es_energy:           -4.443594
##########           Internal_energy_repulsive:           21.453545

@<TRIPOS>MOLECULE
ZINC000477669194
 43 45 1 0 0
SMALL
USER_CHARGES


@<TRIPOS>ATOM
      1 C1         -8.7658   -3.5045   59.4975 C.3     1  ZINC000477669194   -0.0800
      2 C2        -10.0810   -3.6257   58.7718 C.2     1  ZINC000477669194    0.0500
      3 N3        -11.0347   -2.7619   58.8308 N.2     1  ZINC000477669194   -0.4900
      4 C4        -12.1286   -3.0208   58.1291 C.2     1  ZINC000477669194    0.1200
      5 C5        -13.3035   -2.1161   58.1030 C.ar    1  ZINC000477669194   -0.0600
      6 C6        -14.3974   -2.4134   57.2945 C.ar    1  ZINC000477669194   -0.0800
      7 C7        -15.4890   -1.5681   57.2735 C.ar    1  ZINC000477669194   -0.1400
      8 C8        -15.5012   -0.4253   58.0533 C.ar    1  ZINC000477669194   -0.0900
      9 C9        -14.4210   -0.1194   58.8598 C.ar    1  ZINC000477669194   -0.1300
     10 C10       -13.3205   -0.9624   58.8956 C.ar    1  ZINC000477669194    0.1800
     11 N11       -12.2276   -0.6550   59.7108 N.am    1  ZINC000477669194   -0.6500
     12 C12       -12.3992   -0.5026   61.0388 C.2     1  ZINC000477669194    0.5600
     13 O13       -13.5051   -0.6326   61.5279 O.2     1  ZINC000477669194   -0.5200
     14 C14       -11.2460   -0.1782   61.8991 C.ar    1  ZINC000477669194   -0.1500
     15 C15       -10.1767   -1.0728   62.0038 C.ar    1  ZINC000477669194   -0.0600
     16 C16        -9.1019   -0.7671   62.8069 C.ar    1  ZINC000477669194   -0.1400
     17 C17        -9.0785    0.4316   63.5146 C.ar    1  ZINC000477669194    0.1700
     18 N18        -7.9909    0.7376   64.3253 N.am    1  ZINC000477669194   -1.0600
     19 S19        -7.9828    0.2656   65.9126 S.o2    1  ZINC000477669194    2.6100
     20 C20        -9.4336    1.0807   66.6346 C.3     1  ZINC000477669194   -0.6700
     21 O21        -8.1755   -1.1413   65.8608 O.2     1  ZINC000477669194   -0.9400
     22 O22        -6.7853    0.8222   66.4375 O.2     1  ZINC000477669194   -0.9500
     23 C23       -10.1415    1.3247   63.4120 C.ar    1  ZINC000477669194   -0.1600
     24 C24       -11.2170    1.0271   62.6069 C.ar    1  ZINC000477669194   -0.0300
     25 C25       -12.0790   -4.1791   57.4404 C.2     1  ZINC000477669194   -0.2600
     26 S26       -10.5132   -4.9252   57.7492 S.3     1  ZINC000477669194    0.1500
     27 H27        -8.1430   -4.3690   59.2679 H       1  ZINC000477669194    0.0800
     28 H28        -8.2571   -2.5950   59.1781 H       1  ZINC000477669194    0.0900
     29 H29        -8.9462   -3.4617   60.5717 H       1  ZINC000477669194    0.0900
     30 H30       -14.3919   -3.3042   56.6838 H       1  ZINC000477669194    0.1300
     31 H31       -16.3366   -1.7996   56.6456 H       1  ZINC000477669194    0.1300
     32 H32       -16.3585    0.2310   58.0317 H       1  ZINC000477669194    0.1300
     33 H33       -14.4361    0.7744   59.4657 H       1  ZINC000477669194    0.1500
     34 H34       -11.3456   -0.5512   59.3207 H       1  ZINC000477669194    0.4200
     35 H35       -10.1943   -2.0030   61.4554 H       1  ZINC000477669194    0.1300
     36 H36        -8.2758   -1.4579   62.8886 H       1  ZINC000477669194    0.1400
     37 H37        -7.2371    1.2274   63.9610 H       1  ZINC000477669194    0.4300
     38 H38       -10.3393    0.6826   66.1771 H       1  ZINC000477669194    0.1300
     39 H39        -9.4574    0.8956   67.7086 H       1  ZINC000477669194    0.1400
     40 H40        -9.3758    2.1538   66.4521 H       1  ZINC000477669194    0.1300
     41 H41       -10.1202    2.2541   63.9620 H       1  ZINC000477669194    0.1700
     42 H42       -12.0411    1.7206   62.5275 H       1  ZINC000477669194    0.1500
     43 H43       -12.8593   -4.5769   56.8086 H       1  ZINC000477669194    0.1800
@<TRIPOS>BOND
     1     1     2    1
     2     1    27    1
     3     1    28    1
     4     1    29    1
     5     2    26    1
     6     2     3    2
     7     3     4    1
     8     4     5    1
     9     4    25    2
    10     5    10   ar
    11     5     6   ar
    12     6     7   ar
    13     6    30    1
    14     7     8   ar
    15     7    31    1
    16     8     9   ar
    17     8    32    1
    18     9    10   ar
    19     9    33    1
    20    10    11    1
    21    11    12   am
    22    11    34    1
    23    12    13    2
    24    12    14    1
    25    14    24   ar
    26    14    15   ar
    27    15    16   ar
    28    15    35    1
    29    16    17   ar
    30    16    36    1
    31    17    18    1
    32    17    23   ar
    33    18    19   am
    34    18    37    1
    35    19    20    1
    36    19    21    2
    37    19    22    2
    38    20    38    1
    39    20    39    1
    40    20    40    1
    41    23    24   ar
    42    23    41    1
    43    24    42    1
    44    25    26    1
    45    25    43    1
@<TRIPOS>SUBSTRUCTURE
     1 ZINC000477669194        1 TEMP              0 ****  ****    0 ROOT


##########                                Name:    ZINC001342153661
##########                DOCK_Rotatable_Bonds:                   8
##########                         Heavy_Atoms:                  29
##########                    Molecular_Weight:             395.548
##########                DOCK_Rotatable_Bonds:                   8
##########                       Formal_Charge:          -0.0400005
##########                     HBond_Acceptors:                   6
##########                        HBond_Donors:                   1
##########                         Heavy_Atoms:                  29
##########                          Grid_Score:          -35.589447
##########                     Grid_vdw_energy:          -35.708706
##########                      Grid_es_energy:            0.119261
##########           Internal_energy_repulsive:           14.111403

@<TRIPOS>MOLECULE
ZINC001342153661
 62 65 1 0 0
SMALL
USER_CHARGES


@<TRIPOS>ATOM
      1 C1        -14.1878   -2.8805   60.9343 C.2     1  ZINC001342153661   -0.1400
      2 C2        -14.1432   -2.7354   59.6331 C.2     1  ZINC001342153661   -0.1600
      3 C3        -15.0540   -3.5512   58.7523 C.3     1  ZINC001342153661   -0.1200
      4 C4        -13.1809   -1.7527   59.0171 C.3     1  ZINC001342153661    0.1500
      5 N5        -11.9704   -2.4577   58.5887 N.pl3   1  ZINC001342153661   -0.4700
      6 C6        -10.8393   -2.6783   59.3249 C.2     1  ZINC001342153661    0.1800
      7 C7        -10.5985   -2.2380   60.7458 C.3     1  ZINC001342153661   -0.0600
      8 C8         -9.4930   -1.1806   60.7718 C.3     1  ZINC001342153661    0.1600
      9 H9         -8.5344   -1.6519   60.5547 H       1  ZINC001342153661    0.1000
     10 O10        -9.7663   -0.1815   59.7872 O.3     1  ZINC001342153661   -0.5400
     11 C11        -9.4413   -0.5412   62.1354 C.ar    1  ZINC001342153661   -0.1700
     12 C12       -10.3231    0.4754   62.4677 C.ar    1  ZINC001342153661   -0.0600
     13 C13       -10.2392    1.0341   63.7342 C.ar    1  ZINC001342153661   -0.1700
     14 C14        -9.2861    0.5623   64.6165 C.ar    1  ZINC001342153661    0.1000
     15 N15        -8.4632   -0.4069   64.2658 N.ar    1  ZINC001342153661   -0.4800
     16 C16        -8.5177   -0.9649   63.0725 C.ar    1  ZINC001342153661    0.1100
     17 N17       -10.0088   -3.3404   58.5703 N.2     1  ZINC001342153661   -0.2700
     18 N18       -10.5340   -3.5516   57.4164 N.2     1  ZINC001342153661   -0.3200
     19 C19       -11.7397   -3.0355   57.3742 C.2     1  ZINC001342153661    0.3600
     20 N20       -12.6110   -3.0644   56.2971 N.3     1  ZINC001342153661   -0.4500
     21 C21       -12.7514   -4.4279   55.7701 C.3     1  ZINC001342153661    0.0500
     22 C22       -13.8262   -4.4471   54.6808 C.3     1  ZINC001342153661   -0.1200
     23 C23       -13.4263   -3.4849   53.5588 C.3     1  ZINC001342153661   -0.1200
     24 C24       -13.2394   -2.0818   54.1429 C.3     1  ZINC001342153661   -0.0800
     25 H25       -14.1841   -1.7320   54.5590 H       1  ZINC001342153661    0.0800
     26 C26       -12.7822   -1.1259   53.0392 C.3     1  ZINC001342153661   -0.0800
     27 C27       -13.8714   -1.0007   51.9452 C.3     1  ZINC001342153661   -0.1200
     28 C28       -13.5504    0.3696   51.2984 C.3     1  ZINC001342153661   -0.1300
     29 C29       -13.1237    1.2576   52.4856 C.3     1  ZINC001342153661   -0.1300
     30 C30       -12.6353    0.3066   53.5925 C.3     1  ZINC001342153661   -0.1200
     31 C31       -12.1815   -2.1312   55.2478 C.3     1  ZINC001342153661    0.0800
     32 H32       -14.8774   -3.5847   61.3758 H       1  ZINC001342153661    0.1000
     33 H33       -13.5319   -2.2990   61.5652 H       1  ZINC001342153661    0.1100
     34 H34       -16.0189   -3.0517   58.6657 H       1  ZINC001342153661    0.0700
     35 H35       -14.6076   -3.6530   57.7631 H       1  ZINC001342153661    0.0600
     36 H36       -15.1944   -4.5392   59.1908 H       1  ZINC001342153661    0.0700
     37 H37       -13.6490   -1.2776   58.1549 H       1  ZINC001342153661    0.1000
     38 H38       -12.9177   -0.9924   59.7524 H       1  ZINC001342153661    0.1000
     39 H39       -11.5158   -1.8147   61.1554 H       1  ZINC001342153661    0.1100
     40 H40       -10.2949   -3.0959   61.3457 H       1  ZINC001342153661    0.1000
     41 H41        -9.7937   -0.5191   58.8815 H       1  ZINC001342153661    0.3800
     42 H42       -11.0578    0.8244   61.7571 H       1  ZINC001342153661    0.1300
     43 H43       -10.9100    1.8283   64.0271 H       1  ZINC001342153661    0.1400
     44 H44        -9.2141    0.9923   65.6045 H       1  ZINC001342153661    0.1600
     45 H45        -7.8270   -1.7563   62.8212 H       1  ZINC001342153661    0.1500
     46 H46       -11.8007   -4.7538   55.3479 H       1  ZINC001342153661    0.0500
     47 H47       -13.0401   -5.1012   56.5772 H       1  ZINC001342153661    0.0700
     48 H48       -13.9192   -5.4561   54.2790 H       1  ZINC001342153661    0.0800
     49 H49       -14.7803   -4.1345   55.1055 H       1  ZINC001342153661    0.0700
     50 H50       -12.4919   -3.8192   53.1081 H       1  ZINC001342153661    0.0600
     51 H51       -14.2098   -3.4628   52.8014 H       1  ZINC001342153661    0.0700
     52 H52       -11.8415   -1.4661   52.6066 H       1  ZINC001342153661    0.0800
     53 H53       -13.7788   -1.8039   51.2141 H       1  ZINC001342153661    0.0700
     54 H54       -14.8666   -0.9943   52.3896 H       1  ZINC001342153661    0.0700
     55 H55       -12.7341    0.2718   50.5825 H       1  ZINC001342153661    0.0600
     56 H56       -14.4365    0.7800   50.8143 H       1  ZINC001342153661    0.0600
     57 H57       -12.3159    1.9236   52.1823 H       1  ZINC001342153661    0.0600
     58 H58       -13.9741    1.8392   52.8413 H       1  ZINC001342153661    0.0600
     59 H59       -13.2488    0.4268   54.4854 H       1  ZINC001342153661    0.0600
     60 H60       -11.5906    0.5113   53.8263 H       1  ZINC001342153661    0.0600
     61 H61       -12.0564   -1.1365   55.6754 H       1  ZINC001342153661    0.0900
     62 H62       -11.2335   -2.4679   54.8281 H       1  ZINC001342153661    0.0500
@<TRIPOS>BOND
     1     1     2    2
     2     1    32    1
     3     1    33    1
     4     2     3    1
     5     2     4    1
     6     3    34    1
     7     3    35    1
     8     3    36    1
     9     4     5    1
    10     4    37    1
    11     4    38    1
    12     5    19    1
    13     5     6    1
    14     6     7    1
    15     6    17    2
    16     7     8    1
    17     7    39    1
    18     7    40    1
    19     8     9    1
    20     8    10    1
    21     8    11    1
    22    10    41    1
    23    11    16   ar
    24    11    12   ar
    25    12    13   ar
    26    12    42    1
    27    13    14   ar
    28    13    43    1
    29    14    15   ar
    30    14    44    1
    31    15    16   ar
    32    16    45    1
    33    17    18    1
    34    18    19    2
    35    19    20    1
    36    20    31    1
    37    20    21    1
    38    21    22    1
    39    21    46    1
    40    21    47    1
    41    22    23    1
    42    22    48    1
    43    22    49    1
    44    23    24    1
    45    23    50    1
    46    23    51    1
    47    24    25    1
    48    24    26    1
    49    24    31    1
    50    26    30    1
    51    26    27    1
    52    26    52    1
    53    27    28    1
    54    27    53    1
    55    27    54    1
    56    28    29    1
    57    28    55    1
    58    28    56    1
    59    29    30    1
    60    29    57    1
    61    29    58    1
    62    30    59    1
    63    30    60    1
    64    31    61    1
    65    31    62    1
@<TRIPOS>SUBSTRUCTURE
     1 ZINC001342153661        1 TEMP              0 ****  ****    0 ROOT


##########                                Name:    ZINC000151991096
##########                DOCK_Rotatable_Bonds:                   8
##########                         Heavy_Atoms:                  27
##########                    Molecular_Weight:             364.444
##########                DOCK_Rotatable_Bonds:                   8
##########                       Formal_Charge:          -0.0200004
##########                     HBond_Acceptors:                   5
##########                        HBond_Donors:                   1
##########                         Heavy_Atoms:                  27
##########                          Grid_Score:          -35.584431
##########                     Grid_vdw_energy:          -33.895077
##########                      Grid_es_energy:           -1.689355
##########           Internal_energy_repulsive:           19.555002

@<TRIPOS>MOLECULE
ZINC000151991096
 51 53 1 0 0
SMALL
USER_CHARGES


@<TRIPOS>ATOM
      1 C1        -14.6055   -4.0059   55.0432 C.3     1  ZINC000151991096   -0.1500
      2 C2        -13.6090   -3.0012   54.4612 C.3     1  ZINC000151991096   -0.1300
      3 C3        -12.1859   -3.4174   54.8385 C.3     1  ZINC000151991096    0.1400
      4 H4        -12.1188   -4.5052   54.8590 H       1  ZINC000151991096    0.1000
      5 N5        -11.8554   -2.8828   56.1617 N.am    1  ZINC000151991096   -0.7200
      6 C6        -10.8435   -3.4195   56.8719 C.2     1  ZINC000151991096    0.5600
      7 O7        -10.2060   -4.3485   56.4150 O.2     1  ZINC000151991096   -0.5300
      8 C8        -10.5094   -2.8796   58.2045 C.ar    1  ZINC000151991096   -0.1700
      9 C9        -10.6258   -1.5098   58.4546 C.ar    1  ZINC000151991096   -0.0500
     10 C10       -10.3137   -1.0101   59.6992 C.ar    1  ZINC000151991096   -0.1600
     11 C11        -9.8831   -1.8663   60.7060 C.ar    1  ZINC000151991096    0.1600
     12 O12        -9.5767   -1.3701   61.9314 O.3     1  ZINC000151991096   -0.3000
     13 C13        -9.9889   -0.0305   62.2104 C.3     1  ZINC000151991096    0.0900
     14 C14        -9.7406    0.2789   63.6642 C.ar    1  ZINC000151991096   -0.0500
     15 C15        -8.5770   -0.1441   64.2721 C.ar    1  ZINC000151991096   -0.1000
     16 C16        -8.3475    0.1391   65.6070 C.ar    1  ZINC000151991096   -0.0900
     17 C17        -9.2821    0.8472   66.3411 C.ar    1  ZINC000151991096   -0.1200
     18 C18       -10.4504    1.2763   65.7457 C.ar    1  ZINC000151991096   -0.0700
     19 C19       -10.6856    0.9994   64.3977 C.ar    1  ZINC000151991096   -0.0200
     20 C20       -11.8960    1.4418   63.7731 C.1     1  ZINC000151991096    0.2400
     21 N21       -12.8561    1.7927   63.2778 N.1     1  ZINC000151991096   -0.4000
     22 C22        -9.7659   -3.2295   60.4611 C.ar    1  ZINC000151991096   -0.2200
     23 C23       -10.0813   -3.7377   59.2207 C.ar    1  ZINC000151991096   -0.0100
     24 C24       -11.2022   -2.8652   53.8049 C.3     1  ZINC000151991096    0.0700
     25 H25       -10.1962   -3.2231   54.0240 H       1  ZINC000151991096    0.1000
     26 C26       -11.2262   -1.3218   53.8313 C.3     1  ZINC000151991096   -0.1500
     27 C27       -11.1140   -0.9647   52.3241 C.3     1  ZINC000151991096   -0.1600
     28 C28       -11.9038   -2.1344   51.6849 C.3     1  ZINC000151991096    0.0500
     29 O29       -11.5915   -3.2837   52.4916 O.3     1  ZINC000151991096   -0.3700
     30 H30       -14.5087   -4.0264   56.1287 H       1  ZINC000151991096    0.0500
     31 H31       -15.6193   -3.7093   54.7743 H       1  ZINC000151991096    0.0500
     32 H32       -14.3984   -4.9976   54.6411 H       1  ZINC000151991096    0.0600
     33 H33       -13.7058   -2.9807   53.3757 H       1  ZINC000151991096    0.0700
     34 H34       -13.8162   -2.0094   54.8633 H       1  ZINC000151991096    0.0700
     35 H35       -12.3648   -2.1423   56.5268 H       1  ZINC000151991096    0.4000
     36 H36       -10.9600   -0.8439   57.6728 H       1  ZINC000151991096    0.1300
     37 H37       -10.4030    0.0486   59.8933 H       1  ZINC000151991096    0.1400
     38 H38        -9.4200    0.6614   61.5894 H       1  ZINC000151991096    0.0800
     39 H39       -11.0517    0.0754   61.9927 H       1  ZINC000151991096    0.0800
     40 H40        -7.8435   -0.6979   63.7049 H       1  ZINC000151991096    0.1400
     41 H41        -7.4346   -0.1945   66.0779 H       1  ZINC000151991096    0.1400
     42 H42        -9.0970    1.0641   67.3828 H       1  ZINC000151991096    0.1400
     43 H43       -11.1794    1.8287   66.3201 H       1  ZINC000151991096    0.1400
     44 H44        -9.4307   -3.8915   61.2458 H       1  ZINC000151991096    0.1300
     45 H45        -9.9903   -4.7971   59.0313 H       1  ZINC000151991096    0.1400
     46 H46       -12.1645   -0.9556   54.2480 H       1  ZINC000151991096    0.0800
     47 H47       -10.3744   -0.9300   54.3873 H       1  ZINC000151991096    0.0900
     48 H48       -11.5890   -0.0071   52.1108 H       1  ZINC000151991096    0.0800
     49 H49       -10.0745   -0.9671   51.9961 H       1  ZINC000151991096    0.0800
     50 H50       -12.9740   -1.9296   51.7153 H       1  ZINC000151991096    0.0600
     51 H51       -11.5775   -2.2946   50.6574 H       1  ZINC000151991096    0.0900
@<TRIPOS>BOND
     1     1     2    1
     2     1    30    1
     3     1    31    1
     4     1    32    1
     5     2     3    1
     6     2    33    1
     7     2    34    1
     8     3     4    1
     9     3     5    1
    10     3    24    1
    11     5     6   am
    12     5    35    1
    13     6     7    2
    14     6     8    1
    15     8    23   ar
    16     8     9   ar
    17     9    10   ar
    18     9    36    1
    19    10    11   ar
    20    10    37    1
    21    11    12    1
    22    11    22   ar
    23    12    13    1
    24    13    14    1
    25    13    38    1
    26    13    39    1
    27    14    19   ar
    28    14    15   ar
    29    15    16   ar
    30    15    40    1
    31    16    17   ar
    32    16    41    1
    33    17    18   ar
    34    17    42    1
    35    18    19   ar
    36    18    43    1
    37    19    20    1
    38    20    21    3
    39    22    23   ar
    40    22    44    1
    41    23    45    1
    42    24    25    1
    43    24    29    1
    44    24    26    1
    45    26    27    1
    46    26    46    1
    47    26    47    1
    48    27    28    1
    49    27    48    1
    50    27    49    1
    51    28    29    1
    52    28    50    1
    53    28    51    1
@<TRIPOS>SUBSTRUCTURE
     1 ZINC000151991096        1 TEMP              0 ****  ****    0 ROOT


##########                                Name:    ZINC000065993627
##########                DOCK_Rotatable_Bonds:                   7
##########                         Heavy_Atoms:                  28
##########                    Molecular_Weight:             382.462
##########                DOCK_Rotatable_Bonds:                   7
##########                       Formal_Charge:          -0.0200002
##########                     HBond_Acceptors:                   7
##########                        HBond_Donors:                   2
##########                         Heavy_Atoms:                  28
##########                          Grid_Score:          -35.581570
##########                     Grid_vdw_energy:          -36.457417
##########                      Grid_es_energy:            0.875847
##########           Internal_energy_repulsive:           39.509220

@<TRIPOS>MOLECULE
ZINC000065993627
 54 56 1 0 0
SMALL
USER_CHARGES


@<TRIPOS>ATOM
      1 C1         -7.3140   -0.4910   51.0760 C.3     1  ZINC000065993627   -0.1200
      2 C2         -7.4324    0.6986   51.9936 C.ar    1  ZINC000065993627   -0.0700
      3 C3         -8.0098    0.5546   53.2393 C.ar    1  ZINC000065993627   -0.1800
      4 C4         -8.1189    1.6510   54.0851 C.ar    1  ZINC000065993627    0.2000
      5 N5         -8.7036    1.5053   55.3478 N.pl3   1  ZINC000065993627   -0.6400
      6 C6         -8.0281    2.0375   56.5337 C.3     1  ZINC000065993627    0.1000
      7 C7         -9.9916    0.8205   55.4839 C.3     1  ZINC000065993627    0.0900
      8 C8         -7.6472    2.8917   53.6773 C.ar    1  ZINC000065993627   -0.1800
      9 C9         -7.0697    3.0353   52.4311 C.ar    1  ZINC000065993627   -0.0800
     10 C10        -6.9557    1.9382   51.5883 C.ar    1  ZINC000065993627    0.1100
     11 N11        -6.3690    2.0841   50.3234 N.am    1  ZINC000065993627   -0.6800
     12 C12        -5.0269    2.0987   50.2006 C.2     1  ZINC000065993627    0.7000
     13 O13        -4.3249    1.9853   51.1869 O.2     1  ZINC000065993627   -0.5700
     14 N14        -4.4630    2.2389   48.9846 N.am    1  ZINC000065993627   -0.7400
     15 C15        -3.0042    2.2530   48.8509 C.3     1  ZINC000065993627    0.2100
     16 H16        -2.5677    1.5474   49.5578 H       1  ZINC000065993627    0.1000
     17 C17        -2.4787    3.6597   49.1442 C.3     1  ZINC000065993627   -0.1600
     18 C18        -2.6245    1.8576   47.4471 C.ar    1  ZINC000065993627   -0.1200
     19 C19        -2.0715    0.6132   47.2065 C.ar    1  ZINC000065993627   -0.0800
     20 C20        -1.7223    0.2479   45.9211 C.ar    1  ZINC000065993627   -0.1500
     21 C21        -1.9272    1.1318   44.8699 C.ar    1  ZINC000065993627    0.1800
     22 N22        -1.5749    0.7645   43.5661 N.am    1  ZINC000065993627   -0.5700
     23 C23        -0.9858   -0.5237   43.1699 C.3     1  ZINC000065993627    0.0600
     24 C24        -0.8042   -0.3908   41.6455 C.3     1  ZINC000065993627    0.0400
     25 O25        -1.3046    0.9444   41.3457 O.3     1  ZINC000065993627   -0.3200
     26 C26        -1.7245    1.5271   42.4744 C.2     1  ZINC000065993627    0.6400
     27 O27        -2.1905    2.6488   42.5078 O.2     1  ZINC000065993627   -0.5000
     28 C28        -2.4827    2.3807   45.1148 C.ar    1  ZINC000065993627   -0.1500
     29 C29        -2.8349    2.7379   46.4017 C.ar    1  ZINC000065993627   -0.0800
     30 H30        -6.3670   -0.9986   51.2595 H       1  ZINC000065993627    0.0700
     31 H31        -8.1378   -1.1791   51.2651 H       1  ZINC000065993627    0.0700
     32 H32        -7.3514   -0.1555   50.0396 H       1  ZINC000065993627    0.0600
     33 H33        -8.3769   -0.4104   53.5561 H       1  ZINC000065993627    0.1200
     34 H34        -8.3496    3.0649   56.7047 H       1  ZINC000065993627    0.0500
     35 H35        -8.2825    1.4281   57.4010 H       1  ZINC000065993627    0.0700
     36 H36        -6.9494    2.0154   56.3781 H       1  ZINC000065993627    0.0700
     37 H37       -10.2937    0.4192   54.5165 H       1  ZINC000065993627    0.0800
     38 H38        -9.8958    0.0057   56.2014 H       1  ZINC000065993627    0.0500
     39 H39       -10.7435    1.5273   55.8349 H       1  ZINC000065993627    0.0500
     40 H40        -7.7322    3.7445   54.3346 H       1  ZINC000065993627    0.1300
     41 H41        -6.7029    4.0003   52.1139 H       1  ZINC000065993627    0.1500
     42 H42        -6.9290    2.1744   49.5366 H       1  ZINC000065993627    0.4000
     43 H43        -5.0230    2.3306   48.1979 H       1  ZINC000065993627    0.4000
     44 H44        -2.7533    3.9457   50.1596 H       1  ZINC000065993627    0.0700
     45 H45        -1.3933    3.6702   49.0448 H       1  ZINC000065993627    0.0700
     46 H46        -2.9152    4.3654   48.4374 H       1  ZINC000065993627    0.0600
     47 H47        -1.9121   -0.0736   48.0247 H       1  ZINC000065993627    0.1300
     48 H48        -1.2902   -0.7239   45.7338 H       1  ZINC000065993627    0.1600
     49 H49        -0.0229   -0.6710   43.6588 H       1  ZINC000065993627    0.1000
     50 H50        -1.6648   -1.3435   43.4045 H       1  ZINC000065993627    0.1000
     51 H51         0.2491   -0.4732   41.3776 H       1  ZINC000065993627    0.1100
     52 H52        -1.3924   -1.1455   41.1234 H       1  ZINC000065993627    0.1100
     53 H53        -2.6429    3.0704   44.2993 H       1  ZINC000065993627    0.1300
     54 H54        -3.2672    3.7089   46.5927 H       1  ZINC000065993627    0.1300
@<TRIPOS>BOND
     1     1     2    1
     2     1    30    1
     3     1    31    1
     4     1    32    1
     5     2    10   ar
     6     2     3   ar
     7     3     4   ar
     8     3    33    1
     9     4     5    1
    10     4     8   ar
    11     5     6    1
    12     5     7    1
    13     6    34    1
    14     6    35    1
    15     6    36    1
    16     7    37    1
    17     7    38    1
    18     7    39    1
    19     8     9   ar
    20     8    40    1
    21     9    10   ar
    22     9    41    1
    23    10    11    1
    24    11    12   am
    25    11    42    1
    26    12    13    2
    27    12    14   am
    28    14    15    1
    29    14    43    1
    30    15    16    1
    31    15    17    1
    32    15    18    1
    33    17    44    1
    34    17    45    1
    35    17    46    1
    36    18    29   ar
    37    18    19   ar
    38    19    20   ar
    39    19    47    1
    40    20    21   ar
    41    20    48    1
    42    21    22    1
    43    21    28   ar
    44    22    26   am
    45    22    23    1
    46    23    24    1
    47    23    49    1
    48    23    50    1
    49    24    25    1
    50    24    51    1
    51    24    52    1
    52    25    26    1
    53    26    27    2
    54    28    29   ar
    55    28    53    1
    56    29    54    1
@<TRIPOS>SUBSTRUCTURE
     1 ZINC000065993627        1 TEMP              0 ****  ****    0 ROOT


##########                                Name:    ZINC000840464592
##########                DOCK_Rotatable_Bonds:                  10
##########                         Heavy_Atoms:                  26
##########                    Molecular_Weight:             360.497
##########                DOCK_Rotatable_Bonds:                  10
##########                       Formal_Charge:          -0.0399996
##########                     HBond_Acceptors:                   5
##########                        HBond_Donors:                   1
##########                         Heavy_Atoms:                  26
##########                          Grid_Score:          -35.576942
##########                     Grid_vdw_energy:          -35.654678
##########                      Grid_es_energy:            0.077735
##########           Internal_energy_repulsive:           82.628922

@<TRIPOS>MOLECULE
ZINC000840464592
 58 59 1 0 0
SMALL
USER_CHARGES


@<TRIPOS>ATOM
      1 C1        -10.2170    0.5132   63.0747 C.3     1  ZINC000840464592   -0.1500
      2 C2        -11.2103    0.0337   62.0143 C.3     1  ZINC000840464592   -0.1300
      3 C3        -12.6382    0.2318   62.5264 C.3     1  ZINC000840464592   -0.1200
      4 C4        -13.6303   -0.2962   61.4881 C.3     1  ZINC000840464592   -0.1200
      5 C5        -13.5616   -1.8241   61.4479 C.3     1  ZINC000840464592   -0.1200
      6 C6        -14.6581   -2.3599   60.5251 C.3     1  ZINC000840464592    0.0600
      7 O7        -14.3949   -1.9467   59.1827 O.3     1  ZINC000840464592   -0.3600
      8 C8        -15.1768   -2.6293   58.2005 C.3     1  ZINC000840464592    0.0800
      9 H9        -14.9720   -3.6987   58.2520 H       1  ZINC000840464592    0.0800
     10 C10       -16.6626   -2.3811   58.4688 C.3     1  ZINC000840464592   -0.1800
     11 C11       -14.8212   -2.1153   56.8293 C.2     1  ZINC000840464592    0.5200
     12 O12       -15.4643   -1.2142   56.3338 O.2     1  ZINC000840464592   -0.5000
     13 N13       -13.7887   -2.6569   56.1534 N.am    1  ZINC000840464592   -0.6000
     14 C14       -13.4477   -2.1553   54.8245 C.3     1  ZINC000840464592    0.0900
     15 C15       -13.6164   -3.2334   53.7599 C.3     1  ZINC000840464592   -0.1600
     16 C16       -12.6577   -4.3955   54.0290 C.3     1  ZINC000840464592    0.0800
     17 N17       -13.3132   -5.3617   54.9172 N.am    1  ZINC000840464592   -0.7200
     18 C18       -13.5210   -5.0630   56.2094 C.2     1  ZINC000840464592    0.5100
     19 O19       -14.1089   -5.8406   56.9313 O.2     1  ZINC000840464592   -0.5200
     20 C20       -13.0099   -3.7423   56.7588 C.3     1  ZINC000840464592    0.1400
     21 H21       -13.1346   -3.7238   57.8414 H       1  ZINC000840464592    0.1300
     22 C22       -11.5291   -3.5800   56.4099 C.3     1  ZINC000840464592   -0.1000
     23 C23       -10.7635   -3.1767   57.6437 C.ar    1  ZINC000840464592   -0.0900
     24 C24       -10.5958   -1.8383   57.9464 C.ar    1  ZINC000840464592   -0.1100
     25 C25        -9.8937   -1.4683   59.0781 C.ar    1  ZINC000840464592   -0.1200
     26 C26        -9.3595   -2.4367   59.9074 C.ar    1  ZINC000840464592   -0.1200
     27 C27        -9.5280   -3.7750   59.6053 C.ar    1  ZINC000840464592   -0.1200
     28 C28       -10.2338   -4.1450   58.4759 C.ar    1  ZINC000840464592   -0.1100
     29 H29       -10.3576   -0.0613   63.9903 H       1  ZINC000840464592    0.0500
     30 H30        -9.1996    0.3720   62.7098 H       1  ZINC000840464592    0.0500
     31 H31       -10.3862    1.5703   63.2793 H       1  ZINC000840464592    0.0500
     32 H32       -11.0696    0.6081   61.0986 H       1  ZINC000840464592    0.0600
     33 H33       -11.0411   -1.0235   61.8096 H       1  ZINC000840464592    0.0600
     34 H34       -12.7676   -0.3123   63.4620 H       1  ZINC000840464592    0.0600
     35 H35       -12.8197    1.2932   62.6953 H       1  ZINC000840464592    0.0600
     36 H36       -14.6393    0.0151   61.7586 H       1  ZINC000840464592    0.0600
     37 H37       -13.3771    0.1048   60.5068 H       1  ZINC000840464592    0.0600
     38 H38       -12.5866   -2.1342   61.0718 H       1  ZINC000840464592    0.0700
     39 H39       -13.7065   -2.2209   62.4527 H       1  ZINC000840464592    0.0700
     40 H40       -14.6739   -3.4486   60.5736 H       1  ZINC000840464592    0.0500
     41 H41       -15.6242   -1.9679   60.8431 H       1  ZINC000840464592    0.0500
     42 H42       -17.2562   -2.8421   57.6794 H       1  ZINC000840464592    0.0800
     43 H43       -16.9358   -2.8160   59.4302 H       1  ZINC000840464592    0.0700
     44 H44       -16.8540   -1.3082   58.4878 H       1  ZINC000840464592    0.0800
     45 H45       -14.0966   -1.3131   54.5844 H       1  ZINC000840464592    0.1000
     46 H46       -12.4119   -1.8161   54.8267 H       1  ZINC000840464592    0.0800
     47 H47       -14.6427   -3.6004   53.7769 H       1  ZINC000840464592    0.0800
     48 H48       -13.4030   -2.8089   52.7789 H       1  ZINC000840464592    0.1000
     49 H49       -12.4009   -4.8816   53.0878 H       1  ZINC000840464592    0.0900
     50 H50       -11.7525   -4.0185   54.5049 H       1  ZINC000840464592    0.1000
     51 H51       -13.5983   -6.2209   54.5689 H       1  ZINC000840464592    0.4000
     52 H52       -11.1388   -4.5254   56.0331 H       1  ZINC000840464592    0.0900
     53 H53       -11.4180   -2.8107   55.6457 H       1  ZINC000840464592    0.1000
     54 H54       -11.0131   -1.0817   57.2983 H       1  ZINC000840464592    0.1200
     55 H55        -9.7621   -0.4226   59.3141 H       1  ZINC000840464592    0.1200
     56 H56        -8.8103   -2.1476   60.7914 H       1  ZINC000840464592    0.1200
     57 H57        -9.1104   -4.5315   60.2532 H       1  ZINC000840464592    0.1200
     58 H58       -10.3654   -5.1907   58.2398 H       1  ZINC000840464592    0.1200
@<TRIPOS>BOND
     1     1     2    1
     2     1    29    1
     3     1    30    1
     4     1    31    1
     5     2     3    1
     6     2    32    1
     7     2    33    1
     8     3     4    1
     9     3    34    1
    10     3    35    1
    11     4     5    1
    12     4    36    1
    13     4    37    1
    14     5     6    1
    15     5    38    1
    16     5    39    1
    17     6     7    1
    18     6    40    1
    19     6    41    1
    20     7     8    1
    21     8     9    1
    22     8    10    1
    23     8    11    1
    24    10    42    1
    25    10    43    1
    26    10    44    1
    27    11    12    2
    28    11    13   am
    29    13    20    1
    30    13    14    1
    31    14    15    1
    32    14    45    1
    33    14    46    1
    34    15    16    1
    35    15    47    1
    36    15    48    1
    37    16    17    1
    38    16    49    1
    39    16    50    1
    40    17    18   am
    41    17    51    1
    42    18    19    2
    43    18    20    1
    44    20    21    1
    45    20    22    1
    46    22    23    1
    47    22    52    1
    48    22    53    1
    49    23    28   ar
    50    23    24   ar
    51    24    25   ar
    52    24    54    1
    53    25    26   ar
    54    25    55    1
    55    26    27   ar
    56    26    56    1
    57    27    28   ar
    58    27    57    1
    59    28    58    1
@<TRIPOS>SUBSTRUCTURE
     1 ZINC000840464592        1 TEMP              0 ****  ****    0 ROOT


##########                                Name:    ZINC000774689801
##########                DOCK_Rotatable_Bonds:                   4
##########                         Heavy_Atoms:                  24
##########                    Molecular_Weight:             347.395
##########                DOCK_Rotatable_Bonds:                   4
##########                       Formal_Charge:         -0.00999961
##########                     HBond_Acceptors:                   8
##########                        HBond_Donors:                   1
##########                         Heavy_Atoms:                  24
##########                          Grid_Score:          -35.564217
##########                     Grid_vdw_energy:          -34.497486
##########                      Grid_es_energy:           -1.066729
##########           Internal_energy_repulsive:            5.976358

@<TRIPOS>MOLECULE
ZINC000774689801
 41 44 1 0 0
SMALL
USER_CHARGES


@<TRIPOS>ATOM
      1 C1        -12.0959   -1.3473   58.9676 C.3     1  ZINC000774689801   -0.1200
      2 C2        -10.8264   -1.8259   59.6238 C.2     1  ZINC000774689801    0.0600
      3 C3        -10.1330   -2.8782   59.1605 C.2     1  ZINC000774689801   -0.2800
      4 C4        -10.5079   -3.6753   57.9907 C.2     1  ZINC000774689801    0.5500
      5 O5        -10.3384   -4.8797   57.9958 O.2     1  ZINC000774689801   -0.4900
      6 O6        -11.0415   -3.0739   56.9075 O.3     1  ZINC000774689801   -0.3400
      7 C7        -11.1846   -3.8810   55.7090 C.3     1  ZINC000774689801    0.0900
      8 C8        -11.9525   -3.0885   54.6491 C.3     1  ZINC000774689801   -0.1300
      9 H9        -12.9395   -2.8132   55.0207 H       1  ZINC000774689801    0.1200
     10 C10       -11.1589   -1.8274   54.2358 C.3     1  ZINC000774689801   -0.1300
     11 C11       -11.4716   -1.7393   52.7255 C.3     1  ZINC000774689801    0.1000
     12 N12       -11.7896   -3.1108   52.3109 N.am    1  ZINC000774689801   -0.7400
     13 C13       -12.0722   -3.8904   53.3719 C.2     1  ZINC000774689801    0.5200
     14 O14       -12.3742   -5.0634   53.3112 O.2     1  ZINC000774689801   -0.5100
     15 S15        -8.7136   -3.1643   60.1529 S.3     1  ZINC000774689801    0.3000
     16 C16        -9.1128   -1.8079   61.2004 C.2     1  ZINC000774689801    0.1000
     17 C17       -10.2903   -1.2025   60.7490 C.2     1  ZINC000774689801   -0.2500
     18 C18       -10.7777   -0.0389   61.5138 C.2     1  ZINC000774689801    0.5700
     19 O19       -11.7968    0.5403   61.1827 O.2     1  ZINC000774689801   -0.5000
     20 N20       -10.0686    0.3713   62.5916 N.am    1  ZINC000774689801   -0.5500
     21 C21       -10.3428    1.4961   63.5025 C.3     1  ZINC000774689801    0.0900
     22 C22        -9.4946    1.2257   64.7623 C.3     1  ZINC000774689801   -0.1300
     23 C23        -8.3425    0.3720   64.1901 C.3     1  ZINC000774689801   -0.0800
     24 C24        -8.9365   -0.2832   62.9543 C.2     1  ZINC000774689801    0.4200
     25 N25        -8.4902   -1.3117   62.2834 N.2     1  ZINC000774689801   -0.5100
     26 H26       -11.8536   -0.6091   58.2030 H       1  ZINC000774689801    0.0800
     27 H27       -12.6079   -2.1924   58.5073 H       1  ZINC000774689801    0.1000
     28 H28       -12.7442   -0.8943   59.7176 H       1  ZINC000774689801    0.0800
     29 H29       -10.1978   -4.1396   55.3251 H       1  ZINC000774689801    0.0900
     30 H30       -11.7319   -4.7928   55.9481 H       1  ZINC000774689801    0.0800
     31 H31       -11.5253   -0.9460   54.7620 H       1  ZINC000774689801    0.1000
     32 H32       -10.0911   -1.9654   54.4055 H       1  ZINC000774689801    0.0900
     33 H33       -12.3272   -1.0858   52.5550 H       1  ZINC000774689801    0.0800
     34 H34       -10.6016   -1.3728   52.1809 H       1  ZINC000774689801    0.0800
     35 H35       -11.7971   -3.4164   51.3903 H       1  ZINC000774689801    0.4100
     36 H36       -10.0425    2.4367   63.0408 H       1  ZINC000774689801    0.1000
     37 H37       -11.4016    1.5230   63.7599 H       1  ZINC000774689801    0.1000
     38 H38        -9.1171    2.1567   65.1853 H       1  ZINC000774689801    0.1100
     39 H39       -10.0646    0.6652   65.5032 H       1  ZINC000774689801    0.0900
     40 H40        -7.4983    1.0052   63.9170 H       1  ZINC000774689801    0.1200
     41 H41        -8.0344   -0.3847   64.9116 H       1  ZINC000774689801    0.1200
@<TRIPOS>BOND
     1     1     2    1
     2     1    26    1
     3     1    27    1
     4     1    28    1
     5     2    17    1
     6     2     3    2
     7     3     4    1
     8     3    15    1
     9     4     5    2
    10     4     6    1
    11     6     7    1
    12     7     8    1
    13     7    29    1
    14     7    30    1
    15     8     9    1
    16     8    13    1
    17     8    10    1
    18    10    11    1
    19    10    31    1
    20    10    32    1
    21    11    12    1
    22    11    33    1
    23    11    34    1
    24    12    13   am
    25    12    35    1
    26    13    14    2
    27    15    16    1
    28    16    25    1
    29    16    17    2
    30    17    18    1
    31    18    19    2
    32    18    20   am
    33    20    24    1
    34    20    21    1
    35    21    22    1
    36    21    36    1
    37    21    37    1
    38    22    23    1
    39    22    38    1
    40    22    39    1
    41    23    24    1
    42    23    40    1
    43    23    41    1
    44    24    25    2
@<TRIPOS>SUBSTRUCTURE
     1 ZINC000774689801        1 TEMP              0 ****  ****    0 ROOT


##########                                Name:    ZINC000482540246
##########                DOCK_Rotatable_Bonds:                  10
##########                         Heavy_Atoms:                  30
##########                    Molecular_Weight:              409.46
##########                DOCK_Rotatable_Bonds:                  10
##########                       Formal_Charge:         2.83122e-07
##########                     HBond_Acceptors:                   7
##########                        HBond_Donors:                   2
##########                         Heavy_Atoms:                  30
##########                          Grid_Score:          -35.558495
##########                     Grid_vdw_energy:          -35.705696
##########                      Grid_es_energy:            0.147200
##########           Internal_energy_repulsive:           24.551353

@<TRIPOS>MOLECULE
ZINC000482540246
 54 56 1 0 0
SMALL
USER_CHARGES


@<TRIPOS>ATOM
      1 C1         -6.5249    1.7218   52.2951 C.3     1  ZINC000482540246    0.0400
      2 O2         -7.0670    0.4004   52.2486 O.3     1  ZINC000482540246   -0.3100
      3 C3         -8.4184    0.2873   52.2882 C.ar    1  ZINC000482540246    0.3300
      4 C4         -9.0035   -0.9722   52.2867 C.ar    1  ZINC000482540246   -0.1800
      5 C5        -10.3834   -1.0739   52.3273 C.ar    1  ZINC000482540246   -0.0100
      6 C6        -11.0571   -2.4220   52.3277 C.3     1  ZINC000482540246    0.2000
      7 H7        -10.6745   -3.0196   51.5004 H       1  ZINC000482540246    0.1000
      8 C8        -12.5675   -2.2373   52.1678 C.3     1  ZINC000482540246   -0.1600
      9 N9        -10.7801   -3.1059   53.5933 N.am    1  ZINC000482540246   -0.7400
     10 C10       -11.0709   -2.5026   54.7629 C.2     1  ZINC000482540246    0.7100
     11 O11       -11.5617   -1.3902   54.7677 O.2     1  ZINC000482540246   -0.5800
     12 N12       -10.8176   -3.1324   55.9273 N.am    1  ZINC000482540246   -0.7400
     13 C13       -11.1353   -2.4773   57.1986 C.3     1  ZINC000482540246    0.2100
     14 H14       -10.9780   -1.4030   57.1031 H       1  ZINC000482540246    0.1200
     15 C15       -10.2266   -3.0302   58.2983 C.3     1  ZINC000482540246    0.0500
     16 O16        -9.1554   -2.1147   58.5362 O.3     1  ZINC000482540246   -0.3000
     17 C17        -9.2954   -1.2598   59.5841 C.ar    1  ZINC000482540246    0.1000
     18 C18        -9.7275    0.0393   59.3674 C.ar    1  ZINC000482540246   -0.1800
     19 C19        -9.8697    0.9066   60.4343 C.ar    1  ZINC000482540246   -0.0900
     20 C20        -9.5816    0.4805   61.7171 C.ar    1  ZINC000482540246   -0.1300
     21 C21        -9.1498   -0.8148   61.9377 C.ar    1  ZINC000482540246   -0.1200
     22 C22        -9.0113   -1.6885   60.8749 C.ar    1  ZINC000482540246    0.0700
     23 F23        -8.5895   -2.9539   61.0899 F       1  ZINC000482540246   -0.1300
     24 C24       -12.5750   -2.7444   57.5552 C.ar    1  ZINC000482540246   -0.1000
     25 C25       -13.4485   -1.6890   57.7402 C.ar    1  ZINC000482540246   -0.0800
     26 C26       -14.7690   -1.9340   58.0674 C.ar    1  ZINC000482540246   -0.1200
     27 C27       -15.2162   -3.2343   58.2092 C.ar    1  ZINC000482540246   -0.1200
     28 C28       -14.3430   -4.2896   58.0233 C.ar    1  ZINC000482540246   -0.1200
     29 C29       -13.0234   -4.0448   57.6919 C.ar    1  ZINC000482540246   -0.1000
     30 C30       -11.1322    0.0937   52.3681 C.ar    1  ZINC000482540246   -0.2100
     31 C31       -10.4834    1.3128   52.3670 C.ar    1  ZINC000482540246    0.1500
     32 N32        -9.1660    1.3776   52.3332 N.ar    1  ZINC000482540246   -0.5400
     33 H33        -5.4368    1.6698   52.2562 H       1  ZINC000482540246    0.1000
     34 H34        -6.8919    2.2952   51.4438 H       1  ZINC000482540246    0.0600
     35 H35        -6.8326    2.2083   53.2207 H       1  ZINC000482540246    0.0600
     36 H36        -8.3901   -1.8606   52.2540 H       1  ZINC000482540246    0.1500
     37 H37       -12.9500   -1.6397   52.9951 H       1  ZINC000482540246    0.0600
     38 H38       -12.7735   -1.7285   51.2261 H       1  ZINC000482540246    0.0700
     39 H39       -13.0547   -3.2123   52.1681 H       1  ZINC000482540246    0.0700
     40 H40       -10.3874   -3.9928   53.5896 H       1  ZINC000482540246    0.4000
     41 H41       -10.4250   -4.0193   55.9236 H       1  ZINC000482540246    0.4000
     42 H42       -10.8029   -3.1611   59.2142 H       1  ZINC000482540246    0.0800
     43 H43        -9.8199   -3.9915   57.9844 H       1  ZINC000482540246    0.0800
     44 H44        -9.9526    0.3738   58.3655 H       1  ZINC000482540246    0.1400
     45 H45       -10.2060    1.9189   60.2651 H       1  ZINC000482540246    0.1300
     46 H46        -9.6936    1.1603   62.5488 H       1  ZINC000482540246    0.1400
     47 H47        -8.9249   -1.1452   62.9411 H       1  ZINC000482540246    0.1400
     48 H48       -13.0990   -0.6731   57.6294 H       1  ZINC000482540246    0.1200
     49 H49       -15.4512   -1.1094   58.2127 H       1  ZINC000482540246    0.1200
     50 H50       -16.2478   -3.4256   58.4655 H       1  ZINC000482540246    0.1200
     51 H51       -14.6922   -5.3055   58.1345 H       1  ZINC000482540246    0.1200
     52 H52       -12.3412   -4.8693   57.5467 H       1  ZINC000482540246    0.1200
     53 H53       -12.2108    0.0496   52.4001 H       1  ZINC000482540246    0.1400
     54 H54       -11.0614    2.2244   52.3987 H       1  ZINC000482540246    0.1600
@<TRIPOS>BOND
     1     1     2    1
     2     1    33    1
     3     1    34    1
     4     1    35    1
     5     2     3    1
     6     3    32   ar
     7     3     4   ar
     8     4     5   ar
     9     4    36    1
    10     5     6    1
    11     5    30   ar
    12     6     7    1
    13     6     8    1
    14     6     9    1
    15     8    37    1
    16     8    38    1
    17     8    39    1
    18     9    10   am
    19     9    40    1
    20    10    11    2
    21    10    12   am
    22    12    13    1
    23    12    41    1
    24    13    14    1
    25    13    15    1
    26    13    24    1
    27    15    16    1
    28    15    42    1
    29    15    43    1
    30    16    17    1
    31    17    22   ar
    32    17    18   ar
    33    18    19   ar
    34    18    44    1
    35    19    20   ar
    36    19    45    1
    37    20    21   ar
    38    20    46    1
    39    21    22   ar
    40    21    47    1
    41    22    23    1
    42    24    29   ar
    43    24    25   ar
    44    25    26   ar
    45    25    48    1
    46    26    27   ar
    47    26    49    1
    48    27    28   ar
    49    27    50    1
    50    28    29   ar
    51    28    51    1
    52    29    52    1
    53    30    31   ar
    54    30    53    1
    55    31    32   ar
    56    31    54    1
@<TRIPOS>SUBSTRUCTURE
     1 ZINC000482540246        1 TEMP              0 ****  ****    0 ROOT


##########                                Name:    ZINC000124554441
##########                DOCK_Rotatable_Bonds:                   9
##########                         Heavy_Atoms:                  26
##########                    Molecular_Weight:             375.898
##########                DOCK_Rotatable_Bonds:                   9
##########                       Formal_Charge:         -0.00999991
##########                     HBond_Acceptors:                   6
##########                        HBond_Donors:                   1
##########                         Heavy_Atoms:                  26
##########                          Grid_Score:          -35.520222
##########                     Grid_vdw_energy:          -36.409317
##########                      Grid_es_energy:            0.889095
##########           Internal_energy_repulsive:           17.380835

@<TRIPOS>MOLECULE
ZINC000124554441
 52 53 1 0 0
SMALL
USER_CHARGES


@<TRIPOS>ATOM
      1 C1         -4.8814    2.8924   51.6532 C.3     1  ZINC000124554441   -0.1500
      2 C2         -5.1940    1.8263   50.6012 C.3     1  ZINC000124554441   -0.1300
      3 C3         -6.1122    0.7641   51.2089 C.3     1  ZINC000124554441   -0.1200
      4 C4         -7.4143    1.4203   51.6726 C.3     1  ZINC000124554441   -0.1200
      5 C5         -8.3476    0.3522   52.2461 C.3     1  ZINC000124554441   -0.1300
      6 C6         -9.6861    0.9921   52.6199 C.3     1  ZINC000124554441    0.1200
      7 N7        -10.6623   -0.0581   52.9209 N.am    1  ZINC000124554441   -0.7300
      8 C8        -10.6814   -0.6309   54.1408 C.2     1  ZINC000124554441    0.5200
      9 O9         -9.8894   -0.2780   54.9888 O.2     1  ZINC000124554441   -0.5300
     10 C10       -11.6867   -1.7099   54.4510 C.3     1  ZINC000124554441   -0.1200
     11 H11       -12.4631   -1.3075   55.1015 H       1  ZINC000124554441    0.1000
     12 C12       -12.3186   -2.2086   53.1494 C.3     1  ZINC000124554441   -0.1000
     13 C13       -13.3634   -3.2812   53.4658 C.3     1  ZINC000124554441   -0.1400
     14 C14       -12.6802   -4.4657   54.1564 C.3     1  ZINC000124554441    0.0900
     15 N15       -11.9487   -3.9708   55.3307 N.am    1  ZINC000124554441   -0.6000
     16 C16       -12.1579   -4.5105   56.5478 C.2     1  ZINC000124554441    0.5600
     17 O17       -12.9580   -5.4155   56.6819 O.2     1  ZINC000124554441   -0.5200
     18 C18       -11.4138   -4.0014   57.7204 C.ar    1  ZINC000124554441   -0.0900
     19 C19       -10.1807   -4.5609   58.0611 C.ar    1  ZINC000124554441   -0.0900
     20 C20        -9.4869   -4.0878   59.1527 C.ar    1  ZINC000124554441   -0.0600
     21 C21       -10.0166   -3.0480   59.9200 C.ar    1  ZINC000124554441    0.0100
     22 C22        -9.2954   -2.5559   61.0551 C.1     1  ZINC000124554441    0.2400
     23 N23        -8.7230   -2.1656   61.9555 N.1     1  ZINC000124554441   -0.3800
     24 C24       -11.2514   -2.4874   59.5793 C.ar    1  ZINC000124554441    0.0000
     25 Cl25      -11.9108   -1.1945   60.5319 Cl      1  ZINC000124554441   -0.0400
     26 C26       -11.9420   -2.9579   58.4826 C.ar    1  ZINC000124554441   -0.0600
     27 C27       -10.9846   -2.8763   55.1535 C.3     1  ZINC000124554441    0.1200
     28 H28        -5.8090    3.3599   51.9835 H       1  ZINC000124554441    0.0500
     29 H29        -4.3853    2.4277   52.5052 H       1  ZINC000124554441    0.0500
     30 H30        -4.2272    3.6492   51.2204 H       1  ZINC000124554441    0.0500
     31 H31        -5.6901    2.2911   49.7492 H       1  ZINC000124554441    0.0600
     32 H32        -4.2663    1.3589   50.2709 H       1  ZINC000124554441    0.0600
     33 H33        -6.3349    0.0045   50.4595 H       1  ZINC000124554441    0.0600
     34 H34        -5.6161    0.2993   52.0609 H       1  ZINC000124554441    0.0600
     35 H35        -7.1941    2.1611   52.4413 H       1  ZINC000124554441    0.0700
     36 H36        -7.8971    1.9079   50.8257 H       1  ZINC000124554441    0.0700
     37 H37        -8.5124   -0.4250   51.4998 H       1  ZINC000124554441    0.0700
     38 H38        -7.8944   -0.0874   53.1345 H       1  ZINC000124554441    0.0700
     39 H39        -9.5534    1.6267   53.4962 H       1  ZINC000124554441    0.0700
     40 H40       -10.0463    1.5947   51.7861 H       1  ZINC000124554441    0.0700
     41 H41       -11.2949   -0.3412   52.2423 H       1  ZINC000124554441    0.4000
     42 H42       -12.7979   -1.3751   52.6358 H       1  ZINC000124554441    0.0800
     43 H43       -11.5451   -2.6328   52.5093 H       1  ZINC000124554441    0.0800
     44 H44       -14.1242   -2.8645   54.1259 H       1  ZINC000124554441    0.0700
     45 H45       -13.8296   -3.6192   52.5403 H       1  ZINC000124554441    0.0900
     46 H46       -13.4329   -5.1880   54.4726 H       1  ZINC000124554441    0.1000
     47 H47       -11.9836   -4.9396   53.4650 H       1  ZINC000124554441    0.0800
     48 H48        -9.7710   -5.3655   57.4685 H       1  ZINC000124554441    0.1500
     49 H49        -8.5332   -4.5211   59.4155 H       1  ZINC000124554441    0.1500
     50 H50       -12.8957   -2.5254   58.2187 H       1  ZINC000124554441    0.1500
     51 H51       -10.1495   -3.2201   54.5432 H       1  ZINC000124554441    0.0800
     52 H52       -10.6186   -2.5504   56.1272 H       1  ZINC000124554441    0.1000
@<TRIPOS>BOND
     1     1     2    1
     2     1    28    1
     3     1    29    1
     4     1    30    1
     5     2     3    1
     6     2    31    1
     7     2    32    1
     8     3     4    1
     9     3    33    1
    10     3    34    1
    11     4     5    1
    12     4    35    1
    13     4    36    1
    14     5     6    1
    15     5    37    1
    16     5    38    1
    17     6     7    1
    18     6    39    1
    19     6    40    1
    20     7     8   am
    21     7    41    1
    22     8     9    2
    23     8    10    1
    24    10    11    1
    25    10    27    1
    26    10    12    1
    27    12    13    1
    28    12    42    1
    29    12    43    1
    30    13    14    1
    31    13    44    1
    32    13    45    1
    33    14    15    1
    34    14    46    1
    35    14    47    1
    36    15    16   am
    37    15    27    1
    38    16    17    2
    39    16    18    1
    40    18    26   ar
    41    18    19   ar
    42    19    20   ar
    43    19    48    1
    44    20    21   ar
    45    20    49    1
    46    21    22    1
    47    21    24   ar
    48    22    23    3
    49    24    25    1
    50    24    26   ar
    51    26    50    1
    52    27    51    1
    53    27    52    1
@<TRIPOS>SUBSTRUCTURE
     1 ZINC000124554441        1 TEMP              0 ****  ****    0 ROOT


##########                                Name:    ZINC000962730513
##########                DOCK_Rotatable_Bonds:                   6
##########                         Heavy_Atoms:                  24
##########                    Molecular_Weight:             342.465
##########                DOCK_Rotatable_Bonds:                   6
##########                       Formal_Charge:         -0.00999998
##########                     HBond_Acceptors:                   6
##########                        HBond_Donors:                   1
##########                         Heavy_Atoms:                  24
##########                          Grid_Score:          -35.516945
##########                     Grid_vdw_energy:          -33.640224
##########                      Grid_es_energy:           -1.876719
##########           Internal_energy_repulsive:            9.119783

@<TRIPOS>MOLECULE
ZINC000962730513
 46 49 1 0 0
SMALL
USER_CHARGES


@<TRIPOS>ATOM
      1 C1        -15.6601   -1.3390   49.0666 C.3     1  ZINC000962730513   -0.1400
      2 C2        -14.2135   -1.3500   48.5683 C.3     1  ZINC000962730513   -0.0800
      3 C3        -13.6194    0.0267   48.7201 C.2     1  ZINC000962730513   -0.0100
      4 C4        -13.2149    0.5423   49.9193 C.2     1  ZINC000962730513   -0.2800
      5 C5        -13.2937   -0.1464   51.2109 C.2     1  ZINC000962730513    0.6000
      6 O6        -13.7668    0.4236   52.1766 O.2     1  ZINC000962730513   -0.5200
      7 N7        -12.8422   -1.4107   51.3291 N.am    1  ZINC000962730513   -0.7000
      8 C8        -12.9192   -2.0984   52.6204 C.3     1  ZINC000962730513    0.1200
      9 H9        -13.8591   -1.9806   53.1596 H       1  ZINC000962730513    0.1400
     10 C10       -11.6366   -2.1866   53.4498 C.3     1  ZINC000962730513   -0.1700
     11 H11       -10.7339   -1.6872   53.0981 H       1  ZINC000962730513    0.1200
     12 C12       -11.7669   -2.4440   54.9664 C.3     1  ZINC000962730513    0.0700
     13 N13       -11.8129   -3.9235   55.0925 N.3     1  ZINC000962730513   -0.5000
     14 C14       -12.4194   -4.3246   56.3690 C.3     1  ZINC000962730513    0.1100
     15 C15       -11.5230   -3.9045   57.5051 C.ar    1  ZINC000962730513    0.3200
     16 N16       -11.6733   -2.7054   58.0311 N.ar    1  ZINC000962730513   -0.5100
     17 C17       -10.9044   -2.3020   59.0298 C.ar    1  ZINC000962730513    0.1500
     18 C18        -9.9323   -3.1591   59.5209 C.ar    1  ZINC000962730513   -0.1900
     19 C19        -9.0360   -2.7392   60.6573 C.3     1  ZINC000962730513   -0.1100
     20 C20        -9.8044   -4.4118   58.9419 C.ar    1  ZINC000962730513    0.1500
     21 N21       -10.6129   -4.7478   57.9496 N.ar    1  ZINC000962730513   -0.5000
     22 C22       -12.6487   -4.3618   53.9450 C.3     1  ZINC000962730513    0.0700
     23 C23       -12.1957   -3.4403   52.7489 C.3     1  ZINC000962730513   -0.1700
     24 H24       -11.7118   -3.9191   51.8976 H       1  ZINC000962730513    0.1300
     25 S25       -12.5844    2.1637   49.6646 S.3     1  ZINC000962730513    0.1900
     26 C26       -12.8904    2.0699   47.9886 C.2     1  ZINC000962730513   -0.2200
     27 C27       -13.4252    0.8865   47.6653 C.2     1  ZINC000962730513   -0.1500
     28 H28       -15.6803   -1.0485   50.1169 H       1  ZINC000962730513    0.0600
     29 H29       -16.2406   -0.6262   48.4810 H       1  ZINC000962730513    0.0500
     30 H30       -16.0897   -2.3347   48.9567 H       1  ZINC000962730513    0.0600
     31 H31       -13.6329   -2.0629   49.1538 H       1  ZINC000962730513    0.1000
     32 H32       -14.1932   -1.6406   47.5179 H       1  ZINC000962730513    0.0700
     33 H33       -12.4661   -1.8653   50.5591 H       1  ZINC000962730513    0.4000
     34 H34       -10.9020   -2.0442   55.4956 H       1  ZINC000962730513    0.0900
     35 H35       -12.6862   -2.0011   55.3496 H       1  ZINC000962730513    0.0500
     36 H36       -13.3917   -3.8435   56.4763 H       1  ZINC000962730513    0.1000
     37 H37       -12.5457   -5.4071   56.3869 H       1  ZINC000962730513    0.0700
     38 H38       -11.0327   -1.3181   59.4562 H       1  ZINC000962730513    0.1700
     39 H39        -9.4960   -3.0188   61.6051 H       1  ZINC000962730513    0.0800
     40 H40        -8.0706   -3.2361   60.5614 H       1  ZINC000962730513    0.0700
     41 H41        -8.8932   -1.6590   60.6274 H       1  ZINC000962730513    0.0700
     42 H42        -9.0576   -5.1058   59.2982 H       1  ZINC000962730513    0.1700
     43 H43       -12.4476   -5.4058   53.7052 H       1  ZINC000962730513    0.0800
     44 H44       -13.7059   -4.2189   54.1684 H       1  ZINC000962730513    0.0600
     45 H45       -12.6770    2.8585   47.2824 H       1  ZINC000962730513    0.1700
     46 H46       -13.6924    0.6291   46.6511 H       1  ZINC000962730513    0.1500
@<TRIPOS>BOND
     1     1     2    1
     2     1    28    1
     3     1    29    1
     4     1    30    1
     5     2     3    1
     6     2    31    1
     7     2    32    1
     8     3    27    1
     9     3     4    2
    10     4     5    1
    11     4    25    1
    12     5     6    2
    13     5     7   am
    14     7     8    1
    15     7    33    1
    16     8     9    1
    17     8    23    1
    18     8    10    1
    19    10    11    1
    20    10    23    1
    21    10    12    1
    22    12    13    1
    23    12    34    1
    24    12    35    1
    25    13    14    1
    26    13    22    1
    27    14    15    1
    28    14    36    1
    29    14    37    1
    30    15    21   ar
    31    15    16   ar
    32    16    17   ar
    33    17    18   ar
    34    17    38    1
    35    18    19    1
    36    18    20   ar
    37    19    39    1
    38    19    40    1
    39    19    41    1
    40    20    21   ar
    41    20    42    1
    42    22    23    1
    43    22    43    1
    44    22    44    1
    45    23    24    1
    46    25    26    1
    47    26    27    2
    48    26    45    1
    49    27    46    1
@<TRIPOS>SUBSTRUCTURE
     1 ZINC000962730513        1 TEMP              0 ****  ****    0 ROOT


##########                                Name:    ZINC000457806032
##########                DOCK_Rotatable_Bonds:                   8
##########                         Heavy_Atoms:                  24
##########                    Molecular_Weight:             387.911
##########                DOCK_Rotatable_Bonds:                   8
##########                       Formal_Charge:        -1.49012e-07
##########                     HBond_Acceptors:                   9
##########                        HBond_Donors:                   2
##########                         Heavy_Atoms:                  24
##########                          Grid_Score:          -35.515514
##########                     Grid_vdw_energy:          -34.852215
##########                      Grid_es_energy:           -0.663301
##########           Internal_energy_repulsive:           15.670195

@<TRIPOS>MOLECULE
ZINC000457806032
 42 43 1 0 0
SMALL
USER_CHARGES


@<TRIPOS>ATOM
      1 C1        -13.7683   -1.0987   50.8882 C.3     1  ZINC000457806032    0.0800
      2 N2        -13.3654   -1.8245   52.0954 N.am    1  ZINC000457806032   -1.0100
      3 C3        -14.3826   -2.4145   52.9690 C.3     1  ZINC000457806032    0.0900
      4 S4        -11.7602   -1.9782   52.4722 S.o2    1  ZINC000457806032    2.7900
      5 O5        -11.1870   -2.7954   51.4609 O.2     1  ZINC000457806032   -0.9700
      6 O6        -11.2918   -0.6708   52.7733 O.2     1  ZINC000457806032   -0.9700
      7 N7        -11.6681   -2.8438   53.8810 N.am    1  ZINC000457806032   -1.1300
      8 C8        -12.2142   -4.2018   53.9433 C.3     1  ZINC000457806032    0.1100
      9 C9        -12.7169   -4.4849   55.3603 C.3     1  ZINC000457806032    0.1100
     10 N10       -11.6751   -4.1315   56.3278 N.am    1  ZINC000457806032   -0.7300
     11 C11       -12.0146   -3.7591   57.5777 C.2     1  ZINC000457806032    0.5800
     12 O12       -13.1859   -3.7177   57.9030 O.2     1  ZINC000457806032   -0.5300
     13 C13       -10.9676   -3.4023   58.5495 C.2     1  ZINC000457806032   -0.1500
     14 C14        -9.7629   -4.0356   58.6083 C.2     1  ZINC000457806032   -0.2200
     15 S15        -8.7966   -3.3700   59.8467 S.3     1  ZINC000457806032    0.2400
     16 C16       -10.0497   -2.2193   60.2849 C.2     1  ZINC000457806032   -0.1700
     17 C17        -9.9405   -1.2164   61.3664 C.ar    1  ZINC000457806032   -0.0100
     18 C18        -8.8948   -1.2905   62.2873 C.ar    1  ZINC000457806032   -0.0900
     19 C19        -8.7981   -0.3524   63.2940 C.ar    1  ZINC000457806032   -0.1000
     20 C20        -9.7364    0.6611   63.3920 C.ar    1  ZINC000457806032   -0.0300
     21 Cl21       -9.6086    1.8379   64.6618 Cl      1  ZINC000457806032   -0.0600
     22 C22       -10.7760    0.7400   62.4808 C.ar    1  ZINC000457806032   -0.1000
     23 C23       -10.8796   -0.1892   61.4664 C.ar    1  ZINC000457806032   -0.1000
     24 C24       -11.1186   -2.3810   59.4890 C.2     1  ZINC000457806032   -0.0700
     25 H25       -13.9112   -0.0452   51.1284 H       1  ZINC000457806032    0.0600
     26 H26       -12.9917   -1.1962   50.1295 H       1  ZINC000457806032    0.0800
     27 H27       -14.7015   -1.5148   50.5085 H       1  ZINC000457806032    0.0800
     28 H28       -14.5918   -3.4343   52.6461 H       1  ZINC000457806032    0.0600
     29 H29       -14.0171   -2.4262   53.9959 H       1  ZINC000457806032    0.0700
     30 H30       -15.2958   -1.8219   52.9152 H       1  ZINC000457806032    0.0700
     31 H31       -11.2526   -2.4518   54.6649 H       1  ZINC000457806032    0.4200
     32 H32       -13.0413   -4.2935   53.2393 H       1  ZINC000457806032    0.0700
     33 H33       -11.4353   -4.9189   53.6840 H       1  ZINC000457806032    0.0900
     34 H34       -13.6098   -3.8905   55.5545 H       1  ZINC000457806032    0.0800
     35 H35       -12.9575   -5.5437   55.4557 H       1  ZINC000457806032    0.0800
     36 H36       -10.7409   -4.1657   56.0687 H       1  ZINC000457806032    0.4000
     37 H37        -9.4616   -4.8461   57.9612 H       1  ZINC000457806032    0.1700
     38 H38        -8.1627   -2.0810   62.2123 H       1  ZINC000457806032    0.1400
     39 H39        -7.9891   -0.4087   64.0073 H       1  ZINC000457806032    0.1400
     40 H40       -11.5049    1.5327   62.5622 H       1  ZINC000457806032    0.1400
     41 H41       -11.6907   -0.1265   60.7560 H       1  ZINC000457806032    0.1300
     42 H42       -12.0139   -1.7828   59.5730 H       1  ZINC000457806032    0.1600
@<TRIPOS>BOND
     1     1     2    1
     2     1    25    1
     3     1    26    1
     4     1    27    1
     5     2     3    1
     6     2     4   am
     7     3    28    1
     8     3    29    1
     9     3    30    1
    10     4     5    2
    11     4     6    2
    12     4     7   am
    13     7     8    1
    14     7    31    1
    15     8     9    1
    16     8    32    1
    17     8    33    1
    18     9    10    1
    19     9    34    1
    20     9    35    1
    21    10    11   am
    22    10    36    1
    23    11    12    2
    24    11    13    1
    25    13    24    1
    26    13    14    2
    27    14    15    1
    28    14    37    1
    29    15    16    1
    30    16    17    1
    31    16    24    2
    32    17    23   ar
    33    17    18   ar
    34    18    19   ar
    35    18    38    1
    36    19    20   ar
    37    19    39    1
    38    20    21    1
    39    20    22   ar
    40    22    23   ar
    41    22    40    1
    42    23    41    1
    43    24    42    1
@<TRIPOS>SUBSTRUCTURE
     1 ZINC000457806032        1 TEMP              0 ****  ****    0 ROOT


##########                                Name:    ZINC000629379364
##########                DOCK_Rotatable_Bonds:                   5
##########                         Heavy_Atoms:                  23
##########                    Molecular_Weight:             386.261
##########                DOCK_Rotatable_Bonds:                   5
##########                       Formal_Charge:               -0.02
##########                     HBond_Acceptors:                   5
##########                        HBond_Donors:                   1
##########                         Heavy_Atoms:                  23
##########                          Grid_Score:          -35.505455
##########                     Grid_vdw_energy:          -24.875244
##########                      Grid_es_energy:          -10.630210
##########           Internal_energy_repulsive:           28.295784

@<TRIPOS>MOLECULE
ZINC000629379364
 44 46 1 0 0
SMALL
USER_CHARGES


@<TRIPOS>ATOM
      1 O1        -15.0249    0.4368   63.0567 O.co2   1  ZINC000629379364   -0.6800
      2 C2        -14.8686    1.6070   62.7521 C.2     1  ZINC000629379364    0.5000
      3 O3        -15.7602    2.2132   62.1828 O.co2   1  ZINC000629379364   -0.6900
      4 C4        -13.5756    2.3060   63.0850 C.3     1  ZINC000629379364   -0.1600
      5 H5        -13.7665    3.3564   63.3050 H       1  ZINC000629379364    0.0800
      6 C6        -12.5943    2.1857   61.9059 C.3     1  ZINC000629379364   -0.1300
      7 C7        -11.2265    2.7578   62.2660 C.3     1  ZINC000629379364   -0.0100
      8 N8        -10.6802    2.1430   63.4913 N.4     1  ZINC000629379364   -0.3700
      9 H9         -9.7782    2.5427   63.7025 H       1  ZINC000629379364    0.4200
     10 C10       -10.5518    0.6913   63.3067 C.3     1  ZINC000629379364   -0.0200
     11 C11        -9.0968    0.3448   62.9851 C.3     1  ZINC000629379364    0.0300
     12 O12        -9.0240   -0.9943   62.4915 O.3     1  ZINC000629379364   -0.3200
     13 C13        -9.3515   -1.1897   61.1871 C.ar    1  ZINC000629379364    0.1600
     14 C14        -9.7240   -0.1133   60.3961 C.ar    1  ZINC000629379364   -0.2300
     15 C15       -10.0571   -0.3146   59.0681 C.ar    1  ZINC000629379364    0.1500
     16 F16       -10.4202    0.7333   58.2965 F       1  ZINC000629379364   -0.1200
     17 C17       -10.0181   -1.5897   58.5298 C.ar    1  ZINC000629379364   -0.1600
     18 C18        -9.6470   -2.6641   59.3185 C.ar    1  ZINC000629379364   -0.0300
     19 Br19       -9.5946   -4.4043   58.5803 Br      1  ZINC000629379364   -0.0100
     20 C20        -9.3081   -2.4656   60.6438 C.ar    1  ZINC000629379364   -0.1300
     21 C21       -11.6108    2.4247   64.5724 C.3     1  ZINC000629379364   -0.0100
     22 H22       -11.8214    3.4933   64.6144 H       1  ZINC000629379364    0.1400
     23 C23       -11.2144    1.9127   65.9610 C.3     1  ZINC000629379364   -0.1300
     24 C24       -12.5746    1.8357   66.7061 C.3     1  ZINC000629379364   -0.1200
     25 C25       -13.6637    1.6976   65.6138 C.3     1  ZINC000629379364   -0.1100
     26 C26       -12.9163    1.6371   64.2788 C.3     1  ZINC000629379364   -0.0700
     27 H27       -12.6553    0.6049   64.0455 H       1  ZINC000629379364    0.1000
     28 H28       -12.4830    1.1347   61.6395 H       1  ZINC000629379364    0.0800
     29 H29       -12.9950    2.7296   61.0505 H       1  ZINC000629379364    0.1100
     30 H30       -10.5376    2.5773   61.4407 H       1  ZINC000629379364    0.1200
     31 H31       -11.3203    3.8328   62.4196 H       1  ZINC000629379364    0.1300
     32 H32       -10.8533    0.1808   64.2214 H       1  ZINC000629379364    0.1400
     33 H33       -11.1918    0.3716   62.4843 H       1  ZINC000629379364    0.1700
     34 H34        -8.7184    1.0321   62.2283 H       1  ZINC000629379364    0.1100
     35 H35        -8.4940    0.4321   63.8890 H       1  ZINC000629379364    0.0900
     36 H36        -9.7544    0.8812   60.8162 H       1  ZINC000629379364    0.1500
     37 H37       -10.2778   -1.7458   57.4932 H       1  ZINC000629379364    0.1500
     38 H38        -9.0181   -3.3049   61.2585 H       1  ZINC000629379364    0.1500
     39 H39       -10.7564    0.9260   65.8919 H       1  ZINC000629379364    0.0800
     40 H40       -10.5440    2.6164   66.4545 H       1  ZINC000629379364    0.0900
     41 H41       -12.5922    0.9668   67.3638 H       1  ZINC000629379364    0.0800
     42 H42       -12.7370    2.7459   67.2834 H       1  ZINC000629379364    0.0800
     43 H43       -14.2456    0.7898   65.7737 H       1  ZINC000629379364    0.0900
     44 H44       -14.3162    2.5708   65.6189 H       1  ZINC000629379364    0.0800
@<TRIPOS>BOND
     1     1     2   ar
     2     2     3   ar
     3     2     4    1
     4     4     5    1
     5     4    26    1
     6     4     6    1
     7     6     7    1
     8     6    28    1
     9     6    29    1
    10     7     8    1
    11     7    30    1
    12     7    31    1
    13     8     9    1
    14     8    10    1
    15     8    21    1
    16    10    11    1
    17    10    32    1
    18    10    33    1
    19    11    12    1
    20    11    34    1
    21    11    35    1
    22    12    13    1
    23    13    20   ar
    24    13    14   ar
    25    14    15   ar
    26    14    36    1
    27    15    16    1
    28    15    17   ar
    29    17    18   ar
    30    17    37    1
    31    18    19    1
    32    18    20   ar
    33    20    38    1
    34    21    22    1
    35    21    26    1
    36    21    23    1
    37    23    24    1
    38    23    39    1
    39    23    40    1
    40    24    25    1
    41    24    41    1
    42    24    42    1
    43    25    26    1
    44    25    43    1
    45    25    44    1
    46    26    27    1
@<TRIPOS>SUBSTRUCTURE
     1 ZINC000629379364        1 TEMP              0 ****  ****    0 ROOT


##########                                Name:    ZINC000004313955
##########                DOCK_Rotatable_Bonds:                   6
##########                         Heavy_Atoms:                  26
##########                    Molecular_Weight:             414.358
##########                DOCK_Rotatable_Bonds:                   6
##########                       Formal_Charge:           0.0299997
##########                     HBond_Acceptors:                   9
##########                        HBond_Donors:                   2
##########                         Heavy_Atoms:                  26
##########                          Grid_Score:          -35.483440
##########                     Grid_vdw_energy:          -34.765419
##########                      Grid_es_energy:           -0.718023
##########           Internal_energy_repulsive:           12.588318

@<TRIPOS>MOLECULE
ZINC000004313955
 47 49 1 0 0
SMALL
USER_CHARGES


@<TRIPOS>ATOM
      1 C1        -14.6662   -1.0761   52.9398 C.3     1  ZINC000004313955   -0.1500
      2 C2        -13.9079   -2.0585   53.8347 C.3     1  ZINC000004313955   -0.1100
      3 H3        -13.2717   -1.5050   54.5253 H       1  ZINC000004313955    0.0800
      4 C4        -13.0432   -2.9765   52.9676 C.3     1  ZINC000004313955   -0.1100
      5 C5        -12.2593   -3.9379   53.8638 C.3     1  ZINC000004313955   -0.1100
      6 H6        -11.6260   -4.5757   53.2469 H       1  ZINC000004313955    0.0900
      7 C7        -11.3874   -3.1366   54.8328 C.3     1  ZINC000004313955   -0.1500
      8 C8        -13.2413   -4.8060   54.6567 C.3     1  ZINC000004313955    0.1200
      9 N9        -14.1704   -3.9278   55.3810 N.am    1  ZINC000004313955   -0.6000
     10 C10       -14.3417   -4.0575   56.7115 C.2     1  ZINC000004313955    0.5400
     11 O11       -13.7271   -4.9063   57.3221 O.2     1  ZINC000004313955   -0.5300
     12 C12       -15.2970   -3.1481   57.4404 C.3     1  ZINC000004313955   -0.1400
     13 S13       -15.1250   -3.3980   59.2248 S.3     1  ZINC000004313955    0.0800
     14 C14       -13.6205   -2.5270   59.5121 C.2     1  ZINC000004313955    0.1100
     15 N15       -12.7307   -2.1882   58.6062 N.2     1  ZINC000004313955   -0.2800
     16 N16       -11.7541   -1.5623   59.1593 N.2     1  ZINC000004313955   -0.2400
     17 C17       -11.9602   -1.4629   60.4520 C.2     1  ZINC000004313955    0.2500
     18 C18       -11.0690   -0.8130   61.4363 C.ar    1  ZINC000004313955   -0.0100
     19 C19       -11.5163    0.2896   62.1655 C.ar    1  ZINC000004313955   -0.0700
     20 C20       -10.6802    0.8920   63.0826 C.ar    1  ZINC000004313955   -0.1100
     21 C21        -9.3990    0.4055   63.2805 C.ar    1  ZINC000004313955   -0.0100
     22 Cl22       -8.3532    1.1700   64.4362 Cl      1  ZINC000004313955   -0.0500
     23 C23        -8.9486   -0.6884   62.5609 C.ar    1  ZINC000004313955   -0.1100
     24 C24        -9.7776   -1.3035   61.6444 C.ar    1  ZINC000004313955    0.0100
     25 Cl25       -9.2119   -2.6748   60.7426 Cl      1  ZINC000004313955   -0.0100
     26 N26       -13.1645   -2.0729   60.7169 N.pl3   1  ZINC000004313955   -0.3000
     27 N27       -13.7734   -2.2042   61.9327 N.3     1  ZINC000004313955   -0.5800
     28 C28       -14.9086   -2.9047   54.6279 C.3     1  ZINC000004313955    0.1100
     29 H29       -15.2828   -0.4233   53.5577 H       1  ZINC000004313955    0.0600
     30 H30       -13.9538   -0.4751   52.3748 H       1  ZINC000004313955    0.0600
     31 H31       -15.3022   -1.6301   52.2494 H       1  ZINC000004313955    0.0600
     32 H32       -13.6821   -3.5474   52.2938 H       1  ZINC000004313955    0.0700
     33 H33       -12.3467   -2.3744   52.3840 H       1  ZINC000004313955    0.0700
     34 H34       -12.0212   -2.4999   55.4501 H       1  ZINC000004313955    0.0600
     35 H35       -10.8293   -3.8218   55.4708 H       1  ZINC000004313955    0.0600
     36 H36       -10.6908   -2.5174   54.2676 H       1  ZINC000004313955    0.0600
     37 H37       -13.8001   -5.4440   53.9721 H       1  ZINC000004313955    0.0700
     38 H38       -12.6918   -5.4227   55.3680 H       1  ZINC000004313955    0.1000
     39 H39       -15.0694   -2.1106   57.1952 H       1  ZINC000004313955    0.1300
     40 H40       -16.3188   -3.3772   57.1381 H       1  ZINC000004313955    0.1300
     41 H41       -12.5151    0.6707   62.0119 H       1  ZINC000004313955    0.1600
     42 H42       -11.0257    1.7453   63.6474 H       1  ZINC000004313955    0.1500
     43 H43        -7.9483   -1.0632   62.7196 H       1  ZINC000004313955    0.1500
     44 H44       -13.6192   -3.1244   62.3168 H       1  ZINC000004313955    0.3700
     45 H45       -13.4620   -1.4885   62.5722 H       1  ZINC000004313955    0.3800
     46 H46       -15.4592   -2.2678   55.3202 H       1  ZINC000004313955    0.0900
     47 H47       -15.6036   -3.3873   53.9406 H       1  ZINC000004313955    0.0800
@<TRIPOS>BOND
     1     1     2    1
     2     1    29    1
     3     1    30    1
     4     1    31    1
     5     2     3    1
     6     2    28    1
     7     2     4    1
     8     4     5    1
     9     4    32    1
    10     4    33    1
    11     5     6    1
    12     5     7    1
    13     5     8    1
    14     7    34    1
    15     7    35    1
    16     7    36    1
    17     8     9    1
    18     8    37    1
    19     8    38    1
    20     9    10   am
    21     9    28    1
    22    10    11    2
    23    10    12    1
    24    12    13    1
    25    12    39    1
    26    12    40    1
    27    13    14    1
    28    14    26    1
    29    14    15    2
    30    15    16    1
    31    16    17    2
    32    17    18    1
    33    17    26    1
    34    18    24   ar
    35    18    19   ar
    36    19    20   ar
    37    19    41    1
    38    20    21   ar
    39    20    42    1
    40    21    22    1
    41    21    23   ar
    42    23    24   ar
    43    23    43    1
    44    24    25    1
    45    26    27    1
    46    27    44    1
    47    27    45    1
    48    28    46    1
    49    28    47    1
@<TRIPOS>SUBSTRUCTURE
     1 ZINC000004313955        1 TEMP              0 ****  ****    0 ROOT


##########                                Name:    ZINC000821214121
##########                DOCK_Rotatable_Bonds:                  10
##########                         Heavy_Atoms:                  23
##########                    Molecular_Weight:             338.434
##########                DOCK_Rotatable_Bonds:                  10
##########                       Formal_Charge:          0.00999954
##########                     HBond_Acceptors:                   9
##########                        HBond_Donors:                   3
##########                         Heavy_Atoms:                  23
##########                          Grid_Score:          -35.449142
##########                     Grid_vdw_energy:          -34.051888
##########                      Grid_es_energy:           -1.397254
##########           Internal_energy_repulsive:           14.324656

@<TRIPOS>MOLECULE
ZINC000821214121
 45 46 1 0 0
SMALL
USER_CHARGES


@<TRIPOS>ATOM
      1 C1        -13.7626   -5.5491   56.4165 C.3     1  ZINC000821214121   -0.1500
      2 C2        -13.1123   -4.2337   56.8498 C.3     1  ZINC000821214121    0.0500
      3 N3        -11.9323   -3.9725   56.0148 N.3     1  ZINC000821214121   -0.5200
      4 C4        -12.0246   -2.6557   55.3702 C.3     1  ZINC000821214121    0.0600
      5 C5        -12.7405   -2.7954   54.0252 C.3     1  ZINC000821214121   -0.1200
      6 C6        -11.7759   -3.3817   52.9924 C.3     1  ZINC000821214121    0.0800
      7 O7        -11.8050   -4.8083   53.0695 O.3     1  ZINC000821214121   -0.5700
      8 C8        -10.6959   -4.0889   56.7994 C.3     1  ZINC000821214121    0.0400
      9 C9        -10.6918   -3.0469   57.8881 C.2     1  ZINC000821214121    0.5000
     10 O10       -10.4447   -1.8900   57.6195 O.2     1  ZINC000821214121   -0.4800
     11 N11       -10.9626   -3.4002   59.1602 N.am    1  ZINC000821214121   -0.6300
     12 C12       -10.9604   -2.4362   60.1667 C.2     1  ZINC000821214121    0.0800
     13 C13       -12.0704   -1.8566   60.7052 C.2     1  ZINC000821214121   -0.1000
     14 C14       -13.4475   -2.1930   60.2712 C.2     1  ZINC000821214121    0.2900
     15 N15       -14.2268   -3.1232   60.7925 N.2     1  ZINC000821214121   -0.3300
     16 N16       -15.4253   -3.0752   60.0617 N.pl3   1  ZINC000821214121   -0.2900
     17 N17       -15.2934   -2.1481   59.1757 N.2     1  ZINC000821214121    0.0200
     18 N18       -14.1324   -1.6065   59.2833 N.2     1  ZINC000821214121   -0.2900
     19 C19       -11.7958   -0.9189   61.7005 C.2     1  ZINC000821214121   -0.0500
     20 C20       -12.8821   -0.1647   62.4233 C.3     1  ZINC000821214121   -0.1000
     21 C21       -10.5061   -0.7399   61.9648 C.2     1  ZINC000821214121   -0.2400
     22 C22        -9.9623    0.2159   62.9954 C.3     1  ZINC000821214121   -0.0800
     23 S23        -9.5254   -1.7832   60.9456 S.3     1  ZINC000821214121    0.2600
     24 H24       -13.9771   -5.5137   55.3483 H       1  ZINC000821214121    0.0700
     25 H25       -13.0832   -6.3759   56.6235 H       1  ZINC000821214121    0.0500
     26 H26       -14.6910   -5.6946   56.9688 H       1  ZINC000821214121    0.0600
     27 H27       -13.8273   -3.4192   56.7335 H       1  ZINC000821214121    0.0900
     28 H28       -12.8097   -4.3049   57.8945 H       1  ZINC000821214121    0.0400
     29 H29       -12.5855   -1.9757   56.0114 H       1  ZINC000821214121    0.0400
     30 H30       -11.0222   -2.2592   55.2086 H       1  ZINC000821214121    0.0800
     31 H31       -13.5991   -3.4575   54.1375 H       1  ZINC000821214121    0.0800
     32 H32       -13.0793   -1.8149   53.6904 H       1  ZINC000821214121    0.0700
     33 H33       -12.0768   -3.0656   51.9937 H       1  ZINC000821214121    0.0400
     34 H34       -10.7656   -3.0273   53.1967 H       1  ZINC000821214121    0.0500
     35 H35       -12.6866   -5.1903   52.9599 H       1  ZINC000821214121    0.3800
     36 H36       -10.6413   -5.0816   57.2464 H       1  ZINC000821214121    0.0700
     37 H37        -9.8360   -3.9364   56.1473 H       1  ZINC000821214121    0.1200
     38 H38       -11.1591   -4.3255   59.3753 H       1  ZINC000821214121    0.4200
     39 H39       -16.2056   -3.6350   60.1979 H       1  ZINC000821214121    0.4700
     40 H40       -13.1862   -0.7245   63.3078 H       1  ZINC000821214121    0.0700
     41 H41       -12.5071    0.8136   62.7236 H       1  ZINC000821214121    0.0700
     42 H42       -13.7386   -0.0379   61.7612 H       1  ZINC000821214121    0.0900
     43 H43        -9.8738   -0.2951   63.9540 H       1  ZINC000821214121    0.0700
     44 H44        -8.9806    0.5699   62.6804 H       1  ZINC000821214121    0.0700
     45 H45       -10.6391    1.0642   63.0969 H       1  ZINC000821214121    0.0800
@<TRIPOS>BOND
     1     1     2    1
     2     1    24    1
     3     1    25    1
     4     1    26    1
     5     2     3    1
     6     2    27    1
     7     2    28    1
     8     3     4    1
     9     3     8    1
    10     4     5    1
    11     4    29    1
    12     4    30    1
    13     5     6    1
    14     5    31    1
    15     5    32    1
    16     6     7    1
    17     6    33    1
    18     6    34    1
    19     7    35    1
    20     8     9    1
    21     8    36    1
    22     8    37    1
    23     9    10    2
    24     9    11   am
    25    11    12    1
    26    11    38    1
    27    12    23    1
    28    12    13    2
    29    13    14    1
    30    13    19    1
    31    14    18    1
    32    14    15    2
    33    15    16    1
    34    16    17    1
    35    16    39    1
    36    17    18    2
    37    19    20    1
    38    19    21    2
    39    20    40    1
    40    20    41    1
    41    20    42    1
    42    21    22    1
    43    21    23    1
    44    22    43    1
    45    22    44    1
    46    22    45    1
@<TRIPOS>SUBSTRUCTURE
     1 ZINC000821214121        1 TEMP              0 ****  ****    0 ROOT


##########                                Name:    ZINC000509132103
##########                DOCK_Rotatable_Bonds:                   7
##########                         Heavy_Atoms:                  29
##########                    Molecular_Weight:              405.52
##########                DOCK_Rotatable_Bonds:                   7
##########                       Formal_Charge:          -0.0499998
##########                     HBond_Acceptors:                   6
##########                        HBond_Donors:                   0
##########                         Heavy_Atoms:                  29
##########                          Grid_Score:          -35.432079
##########                     Grid_vdw_energy:          -35.012703
##########                      Grid_es_energy:           -0.419377
##########           Internal_energy_repulsive:           14.611230

@<TRIPOS>MOLECULE
ZINC000509132103
 52 55 1 0 0
SMALL
USER_CHARGES


@<TRIPOS>ATOM
      1 C1        -15.9871   -3.2339   47.1143 C.3     1  ZINC000509132103    0.0300
      2 O2        -14.9169   -2.3542   47.4650 O.3     1  ZINC000509132103   -0.3000
      3 C3        -14.7684   -2.0589   48.7811 C.ar    1  ZINC000509132103    0.2700
      4 C4        -13.7150   -1.2516   49.2018 C.ar    1  ZINC000509132103   -0.1300
      5 C5        -13.6069   -0.9791   50.5573 C.ar    1  ZINC000509132103   -0.0700
      6 C6        -14.5539   -1.5273   51.4099 C.ar    1  ZINC000509132103    0.0500
      7 C7        -14.4794   -1.2599   52.8910 C.3     1  ZINC000509132103   -0.0500
      8 S8        -14.8805   -2.7773   53.8004 S.3     1  ZINC000509132103   -0.1500
      9 C9        -13.3878   -3.7863   53.5894 C.3     1  ZINC000509132103   -0.1300
     10 C10       -12.2848   -3.2392   54.4583 C.2     1  ZINC000509132103    0.5400
     11 O11       -11.4347   -2.5197   53.9781 O.2     1  ZINC000509132103   -0.5100
     12 N12       -12.2429   -3.5496   55.7692 N.am    1  ZINC000509132103   -0.6100
     13 C13       -13.2558   -4.4169   56.3804 C.3     1  ZINC000509132103    0.1500
     14 C14       -13.7003   -3.8293   57.6963 C.ar    1  ZINC000509132103   -0.1000
     15 C15       -14.8224   -4.3757   58.3033 C.ar    1  ZINC000509132103   -0.1100
     16 C16       -15.2718   -3.8875   59.5134 C.ar    1  ZINC000509132103   -0.1200
     17 C17       -14.5981   -2.8475   60.1256 C.ar    1  ZINC000509132103   -0.1200
     18 C18       -13.4850   -2.3009   59.5211 C.ar    1  ZINC000509132103   -0.1100
     19 C19       -13.0338   -2.7863   58.3001 C.ar    1  ZINC000509132103   -0.0600
     20 C20       -11.8286   -2.1229   57.6872 C.3     1  ZINC000509132103   -0.0200
     21 H21       -12.1356   -1.1923   57.2100 H       1  ZINC000509132103    0.1000
     22 C22       -10.8266   -1.8173   58.7706 C.ar    1  ZINC000509132103   -0.0800
     23 C23       -10.3010   -2.8421   59.5349 C.ar    1  ZINC000509132103   -0.1100
     24 C24        -9.3818   -2.5617   60.5286 C.ar    1  ZINC000509132103   -0.1200
     25 C25        -8.9880   -1.2565   60.7577 C.ar    1  ZINC000509132103   -0.1200
     26 C26        -9.5131   -0.2319   59.9927 C.ar    1  ZINC000509132103   -0.1200
     27 C27       -10.4289   -0.5127   58.9961 C.ar    1  ZINC000509132103   -0.1100
     28 C28       -11.1753   -3.0366   56.6437 C.3     1  ZINC000509132103    0.1200
     29 N29       -15.5196   -2.2819   50.9237 N.ar    1  ZINC000509132103   -0.1900
     30 N30       -15.6275   -2.5327   49.6696 N.ar    1  ZINC000509132103   -0.3000
     31 H31       -16.9351   -2.7945   47.4246 H       1  ZINC000509132103    0.0600
     32 H32       -15.9932   -3.3863   46.0350 H       1  ZINC000509132103    0.1000
     33 H33       -15.8492   -4.1919   47.6157 H       1  ZINC000509132103    0.0600
     34 H34       -13.0041   -0.8503   48.4947 H       1  ZINC000509132103    0.1600
     35 H35       -12.8088   -0.3590   50.9378 H       1  ZINC000509132103    0.1600
     36 H36       -13.4718   -0.9358   53.1515 H       1  ZINC000509132103    0.1100
     37 H37       -15.1921   -0.4787   53.1555 H       1  ZINC000509132103    0.1000
     38 H38       -13.6012   -4.8154   53.8779 H       1  ZINC000509132103    0.1100
     39 H39       -13.0754   -3.7589   52.5454 H       1  ZINC000509132103    0.1100
     40 H40       -14.1130   -4.5001   55.7123 H       1  ZINC000509132103    0.1000
     41 H41       -12.8315   -5.4065   56.5498 H       1  ZINC000509132103    0.0900
     42 H42       -15.3480   -5.1889   57.8250 H       1  ZINC000509132103    0.1200
     43 H43       -16.1461   -4.3166   59.9802 H       1  ZINC000509132103    0.1300
     44 H44       -14.9425   -2.4633   61.0743 H       1  ZINC000509132103    0.1200
     45 H45       -12.9599   -1.4884   60.0011 H       1  ZINC000509132103    0.1200
     46 H46       -10.6085   -3.8618   59.3560 H       1  ZINC000509132103    0.1200
     47 H47        -8.9716   -3.3623   61.1264 H       1  ZINC000509132103    0.1200
     48 H48        -8.2705   -1.0374   61.5346 H       1  ZINC000509132103    0.1200
     49 H49        -9.2057    0.7879   60.1719 H       1  ZINC000509132103    0.1200
     50 H50       -10.8392    0.2879   58.3984 H       1  ZINC000509132103    0.1200
     51 H51       -10.6706   -3.8641   57.1423 H       1  ZINC000509132103    0.0800
     52 H52       -10.4570   -2.4676   56.0533 H       1  ZINC000509132103    0.1000
@<TRIPOS>BOND
     1     1     2    1
     2     1    31    1
     3     1    32    1
     4     1    33    1
     5     2     3    1
     6     3    30   ar
     7     3     4   ar
     8     4     5   ar
     9     4    34    1
    10     5     6   ar
    11     5    35    1
    12     6     7    1
    13     6    29   ar
    14     7     8    1
    15     7    36    1
    16     7    37    1
    17     8     9    1
    18     9    10    1
    19     9    38    1
    20     9    39    1
    21    10    11    2
    22    10    12   am
    23    12    28    1
    24    12    13    1
    25    13    14    1
    26    13    40    1
    27    13    41    1
    28    14    19   ar
    29    14    15   ar
    30    15    16   ar
    31    15    42    1
    32    16    17   ar
    33    16    43    1
    34    17    18   ar
    35    17    44    1
    36    18    19   ar
    37    18    45    1
    38    19    20    1
    39    20    21    1
    40    20    22    1
    41    20    28    1
    42    22    27   ar
    43    22    23   ar
    44    23    24   ar
    45    23    46    1
    46    24    25   ar
    47    24    47    1
    48    25    26   ar
    49    25    48    1
    50    26    27   ar
    51    26    49    1
    52    27    50    1
    53    28    51    1
    54    28    52    1
    55    29    30   ar
@<TRIPOS>SUBSTRUCTURE
     1 ZINC000509132103        1 TEMP              0 ****  ****    0 ROOT


##########                                Name:    ZINC000432833246
##########                DOCK_Rotatable_Bonds:                   5
##########                         Heavy_Atoms:                  25
##########                    Molecular_Weight:             400.318
##########                DOCK_Rotatable_Bonds:                   5
##########                       Formal_Charge:        -3.20375e-07
##########                     HBond_Acceptors:                   4
##########                        HBond_Donors:                   1
##########                         Heavy_Atoms:                  25
##########                          Grid_Score:          -35.362846
##########                     Grid_vdw_energy:          -34.998589
##########                      Grid_es_energy:           -0.364258
##########           Internal_energy_repulsive:           10.447361

@<TRIPOS>MOLECULE
ZINC000432833246
 47 51 1 0 0
SMALL
USER_CHARGES


@<TRIPOS>ATOM
      1 O1        -10.3128   -2.6127   52.1650 O.2     1  ZINC000432833246   -0.5200
      2 C2        -11.3083   -2.9312   52.7802 C.2     1  ZINC000432833246    0.5200
      3 C3        -11.3231   -3.8189   54.0051 C.3     1  ZINC000432833246   -0.1500
      4 C4        -12.7144   -3.5743   54.6339 C.3     1  ZINC000432833246   -0.1100
      5 H5        -12.6681   -2.7912   55.3908 H       1  ZINC000432833246    0.1000
      6 C6        -13.2846   -4.8668   55.2215 C.3     1  ZINC000432833246    0.1300
      7 N7        -12.6597   -5.1301   56.5202 N.pl3   1  ZINC000432833246   -0.7200
      8 C8        -12.5764   -4.1205   57.4670 C.ar    1  ZINC000432833246    0.2800
      9 C9        -11.3745   -3.8806   58.1746 C.ar    1  ZINC000432833246   -0.1500
     10 C10       -10.2266   -4.6518   57.9453 C.ar    1  ZINC000432833246   -0.0700
     11 C11        -9.0878   -4.3903   58.6462 C.ar    1  ZINC000432833246   -0.1300
     12 C12        -9.0493   -3.3659   59.5889 C.ar    1  ZINC000432833246   -0.0600
     13 C13       -10.1467   -2.5978   59.8360 C.ar    1  ZINC000432833246   -0.0800
     14 Br14      -10.0660   -1.2129   61.1213 Br      1  ZINC000432833246   -0.0300
     15 C15       -11.3397   -2.8383   59.1312 C.ar    1  ZINC000432833246    0.1900
     16 N16       -12.4322   -2.0989   59.3536 N.ar    1  ZINC000432833246   -0.5000
     17 C17       -13.5527   -2.3115   58.7033 C.ar    1  ZINC000432833246    0.2400
     18 C18       -14.7478   -1.4431   59.0004 C.3     1  ZINC000432833246   -0.1100
     19 C19       -16.1040   -2.1353   59.1512 C.3     1  ZINC000432833246   -0.1700
     20 C20       -15.3902   -1.5743   60.3828 C.3     1  ZINC000432833246   -0.1600
     21 C21       -13.6661   -3.3104   57.7462 C.ar    1  ZINC000432833246   -0.2700
     22 C22       -13.5364   -3.1126   53.4102 C.3     1  ZINC000432833246    0.1100
     23 N23       -12.5585   -2.5420   52.4763 N.am    1  ZINC000432833246   -0.5900
     24 C24       -12.9019   -1.6679   51.3519 C.3     1  ZINC000432833246    0.0800
     25 C25       -14.2459   -0.9391   51.4083 C.3     1  ZINC000432833246   -0.1900
     26 C26       -12.9447   -0.1614   51.6155 C.3     1  ZINC000432833246   -0.1900
     27 H27       -11.2121   -4.8650   53.7195 H       1  ZINC000432833246    0.1100
     28 H28       -10.5344   -3.5259   54.6980 H       1  ZINC000432833246    0.1000
     29 H29       -14.3619   -4.7627   55.3511 H       1  ZINC000432833246    0.0800
     30 H30       -13.0785   -5.6957   54.5443 H       1  ZINC000432833246    0.0700
     31 H31       -12.3044   -6.0108   56.7177 H       1  ZINC000432833246    0.4000
     32 H32       -10.2448   -5.4493   57.2172 H       1  ZINC000432833246    0.1300
     33 H33        -8.2039   -4.9850   58.4687 H       1  ZINC000432833246    0.1400
     34 H34        -8.1354   -3.1779   60.1326 H       1  ZINC000432833246    0.1400
     35 H35       -14.7355   -0.4538   58.5431 H       1  ZINC000432833246    0.1300
     36 H36       -16.9841   -1.6013   58.7929 H       1  ZINC000432833246    0.1000
     37 H37       -16.1317   -3.2187   59.0355 H       1  ZINC000432833246    0.1000
     38 H38       -14.9484   -2.2888   61.0773 H       1  ZINC000432833246    0.0900
     39 H39       -15.8008   -0.6714   60.8347 H       1  ZINC000432833246    0.1000
     40 H40       -14.6011   -3.4610   57.2274 H       1  ZINC000432833246    0.1400
     41 H41       -14.0462   -3.9622   52.9560 H       1  ZINC000432833246    0.0800
     42 H42       -14.2593   -2.3525   53.7064 H       1  ZINC000432833246    0.0900
     43 H43       -12.5487   -1.9979   50.3749 H       1  ZINC000432833246    0.1300
     44 H44       -14.7774   -0.7896   50.4685 H       1  ZINC000432833246    0.1000
     45 H45       -14.8747   -1.1099   52.2821 H       1  ZINC000432833246    0.1300
     46 H46       -12.7174    0.1793   52.6257 H       1  ZINC000432833246    0.0900
     47 H47       -12.6200    0.4996   50.8119 H       1  ZINC000432833246    0.1000
@<TRIPOS>BOND
     1     1     2    2
     2     2    23   am
     3     2     3    1
     4     3     4    1
     5     3    27    1
     6     3    28    1
     7     4     5    1
     8     4     6    1
     9     4    22    1
    10     6     7    1
    11     6    29    1
    12     6    30    1
    13     7     8    1
    14     7    31    1
    15     8    21   ar
    16     8     9   ar
    17     9    15   ar
    18     9    10   ar
    19    10    11   ar
    20    10    32    1
    21    11    12   ar
    22    11    33    1
    23    12    13   ar
    24    12    34    1
    25    13    14    1
    26    13    15   ar
    27    15    16   ar
    28    16    17   ar
    29    17    18    1
    30    17    21   ar
    31    18    20    1
    32    18    19    1
    33    18    35    1
    34    19    20    1
    35    19    36    1
    36    19    37    1
    37    20    38    1
    38    20    39    1
    39    21    40    1
    40    22    23    1
    41    22    41    1
    42    22    42    1
    43    23    24    1
    44    24    26    1
    45    24    25    1
    46    24    43    1
    47    25    26    1
    48    25    44    1
    49    25    45    1
    50    26    46    1
    51    26    47    1
@<TRIPOS>SUBSTRUCTURE
     1 ZINC000432833246        1 TEMP              0 ****  ****    0 ROOT


##########                                Name:    ZINC000076573199
##########                DOCK_Rotatable_Bonds:                  10
##########                         Heavy_Atoms:                  24
##########                    Molecular_Weight:             333.431
##########                DOCK_Rotatable_Bonds:                  10
##########                       Formal_Charge:          -0.0200009
##########                     HBond_Acceptors:                   6
##########                        HBond_Donors:                   3
##########                         Heavy_Atoms:                  24
##########                          Grid_Score:          -35.346405
##########                     Grid_vdw_energy:          -29.218649
##########                      Grid_es_energy:           -6.127758
##########           Internal_energy_repulsive:           27.477612

@<TRIPOS>MOLECULE
ZINC000076573199
 51 51 1 0 0
SMALL
USER_CHARGES


@<TRIPOS>ATOM
      1 C1         -1.6075    2.2949   65.3897 C.3     1  ZINC000076573199   -0.1500
      2 C2         -2.7382    1.5079   64.7240 C.3     1  ZINC000076573199   -0.1200
      3 C3         -3.6991    2.4793   64.0355 C.3     1  ZINC000076573199   -0.1000
      4 H4         -4.5046    1.9187   63.5612 H       1  ZINC000076573199    0.0700
      5 C5         -2.9415    3.2799   62.9745 C.3     1  ZINC000076573199   -0.1500
      6 C6         -4.2869    3.4370   65.0738 C.3     1  ZINC000076573199   -0.1200
      7 C7         -5.1898    2.6582   66.0325 C.3     1  ZINC000076573199    0.1400
      8 H8         -4.6069    1.8855   66.5336 H       1  ZINC000076573199    0.1000
      9 C9         -5.7720    3.6146   67.0752 C.3     1  ZINC000076573199   -0.1700
     10 N10        -6.2805    2.0352   65.2784 N.am    1  ZINC000076573199   -0.6900
     11 C11        -6.9114    0.9530   65.7759 C.2     1  ZINC000076573199    0.5100
     12 O12        -6.5751    0.4938   66.8477 O.2     1  ZINC000076573199   -0.5100
     13 C13        -8.0245    0.3190   65.0080 C.2     1  ZINC000076573199    0.5100
     14 O14        -8.6145   -0.6356   65.4709 O.2     1  ZINC000076573199   -0.5000
     15 N15        -8.3739    0.8065   63.8011 N.am    1  ZINC000076573199   -0.6400
     16 C16        -9.4152    0.2134   63.0827 C.ar    1  ZINC000076573199    0.1500
     17 C17       -10.6987    0.7412   63.1543 C.ar    1  ZINC000076573199   -0.1300
     18 C18       -11.7286    0.1552   62.4438 C.ar    1  ZINC000076573199   -0.0800
     19 C19       -11.4864   -0.9566   61.6602 C.ar    1  ZINC000076573199   -0.1200
     20 C20       -12.6128   -1.5920   60.8867 C.3     1  ZINC000076573199   -0.1100
     21 C21       -10.2052   -1.4893   61.5843 C.ar    1  ZINC000076573199    0.1600
     22 N22        -9.9611   -2.6153   60.7905 N.am    1  ZINC000076573199   -0.6700
     23 C23        -9.3775   -2.4754   59.5837 C.2     1  ZINC000076573199    0.5100
     24 C24        -9.1145   -3.6880   58.7286 C.3     1  ZINC000076573199   -0.1700
     25 O25        -9.0642   -1.3733   59.1858 O.2     1  ZINC000076573199   -0.5200
     26 C26        -9.1677   -0.9006   62.2921 C.ar    1  ZINC000076573199   -0.1400
     27 H27        -2.0264    2.9771   66.1295 H       1  ZINC000076573199    0.0600
     28 H28        -0.9230    1.6029   65.8801 H       1  ZINC000076573199    0.0500
     29 H29        -1.0678    2.8654   64.6339 H       1  ZINC000076573199    0.0500
     30 H30        -2.3193    0.8257   63.9842 H       1  ZINC000076573199    0.0600
     31 H31        -3.2779    0.9375   65.4799 H       1  ZINC000076573199    0.0600
     32 H32        -2.1900    3.9041   63.4580 H       1  ZINC000076573199    0.0600
     33 H33        -2.4533    2.5944   62.2818 H       1  ZINC000076573199    0.0600
     34 H34        -3.6413    3.9118   62.4276 H       1  ZINC000076573199    0.0500
     35 H35        -3.4784    3.9047   65.6355 H       1  ZINC000076573199    0.0800
     36 H36        -4.8710    4.2064   64.5689 H       1  ZINC000076573199    0.0700
     37 H37        -6.4152    3.0597   67.7582 H       1  ZINC000076573199    0.0600
     38 H38        -4.9605    4.0782   67.6363 H       1  ZINC000076573199    0.0700
     39 H39        -6.3550    4.3874   66.5741 H       1  ZINC000076573199    0.0600
     40 H40        -6.5486    2.4015   64.4212 H       1  ZINC000076573199    0.4100
     41 H41        -7.9024    1.5694   63.4312 H       1  ZINC000076573199    0.4200
     42 H42       -10.8913    1.6099   63.7662 H       1  ZINC000076573199    0.1400
     43 H43       -12.7253    0.5670   62.5013 H       1  ZINC000076573199    0.1300
     44 H44       -12.6780   -1.1356   59.8990 H       1  ZINC000076573199    0.0700
     45 H45       -12.4240   -2.6603   60.7815 H       1  ZINC000076573199    0.0600
     46 H46       -13.5511   -1.4396   61.4200 H       1  ZINC000076573199    0.0700
     47 H47       -10.2117   -3.4968   61.1086 H       1  ZINC000076573199    0.4100
     48 H48       -10.0573   -4.1890   58.5087 H       1  ZINC000076573199    0.0900
     49 H49        -8.6410   -3.3798   57.7965 H       1  ZINC000076573199    0.1000
     50 H50        -8.4552   -4.3727   59.2621 H       1  ZINC000076573199    0.0900
     51 H51        -8.1711   -1.3128   62.2347 H       1  ZINC000076573199    0.1400
@<TRIPOS>BOND
     1     1     2    1
     2     1    27    1
     3     1    28    1
     4     1    29    1
     5     2     3    1
     6     2    30    1
     7     2    31    1
     8     3     4    1
     9     3     5    1
    10     3     6    1
    11     5    32    1
    12     5    33    1
    13     5    34    1
    14     6     7    1
    15     6    35    1
    16     6    36    1
    17     7     8    1
    18     7     9    1
    19     7    10    1
    20     9    37    1
    21     9    38    1
    22     9    39    1
    23    10    11   am
    24    10    40    1
    25    11    12    2
    26    11    13    1
    27    13    14    2
    28    13    15   am
    29    15    16    1
    30    15    41    1
    31    16    26   ar
    32    16    17   ar
    33    17    18   ar
    34    17    42    1
    35    18    19   ar
    36    18    43    1
    37    19    20    1
    38    19    21   ar
    39    20    44    1
    40    20    45    1
    41    20    46    1
    42    21    22    1
    43    21    26   ar
    44    22    23   am
    45    22    47    1
    46    23    24    1
    47    23    25    2
    48    24    48    1
    49    24    49    1
    50    24    50    1
    51    26    51    1
@<TRIPOS>SUBSTRUCTURE
     1 ZINC000076573199        1 TEMP              0 ****  ****    0 ROOT


##########                                Name:    ZINC000788423111
##########                DOCK_Rotatable_Bonds:                   7
##########                         Heavy_Atoms:                  23
##########                    Molecular_Weight:             399.243
##########                DOCK_Rotatable_Bonds:                   7
##########                       Formal_Charge:         1.04308e-07
##########                     HBond_Acceptors:                   8
##########                        HBond_Donors:                   1
##########                         Heavy_Atoms:                  23
##########                          Grid_Score:          -35.309505
##########                     Grid_vdw_energy:          -33.748508
##########                      Grid_es_energy:           -1.560998
##########           Internal_energy_repulsive:            2.961517

@<TRIPOS>MOLECULE
ZINC000788423111
 35 37 1 0 0
SMALL
USER_CHARGES


@<TRIPOS>ATOM
      1 O1         -8.8614   -0.9671   59.3276 O.3     1  ZINC000788423111   -0.5400
      2 C2         -9.5713   -1.5726   60.4100 C.3     1  ZINC000788423111    0.1000
      3 H3        -10.6338   -1.3469   60.3191 H       1  ZINC000788423111    0.1300
      4 C4         -9.0447   -1.0218   61.7367 C.3     1  ZINC000788423111    0.0300
      5 O5         -9.6842    0.2238   62.0228 O.3     1  ZINC000788423111   -0.2900
      6 C6         -9.8391    0.5512   63.3326 C.ar    1  ZINC000788423111    0.1700
      7 C7        -11.0903    0.9009   63.8175 C.ar    1  ZINC000788423111   -0.2400
      8 C8        -11.2457    1.2342   65.1517 C.ar    1  ZINC000788423111    0.1500
      9 F9        -12.4642    1.5749   65.6253 F       1  ZINC000788423111   -0.1300
     10 C10       -10.1526    1.2179   66.0014 C.ar    1  ZINC000788423111   -0.1600
     11 C11        -8.9040    0.8696   65.5182 C.ar    1  ZINC000788423111   -0.0300
     12 Br12       -7.4131    0.8484   66.6814 Br      1  ZINC000788423111   -0.0200
     13 C13        -8.7463    0.5307   64.1875 C.ar    1  ZINC000788423111   -0.1300
     14 C14        -9.3665   -3.0883   60.3698 C.3     1  ZINC000788423111    0.1000
     15 N15       -10.0670   -3.6451   59.2100 N.pl3   1  ZINC000788423111   -0.1300
     16 N16        -9.6064   -4.5609   58.4314 N.2     1  ZINC000788423111   -0.0500
     17 N17       -10.4802   -4.8128   57.5167 N.2     1  ZINC000788423111   -0.2600
     18 C18       -11.5337   -4.0125   57.7414 C.2     1  ZINC000788423111    0.2400
     19 C19       -12.7799   -3.9477   56.9471 C.2     1  ZINC000788423111   -0.1300
     20 C20       -13.7413   -3.0137   57.0829 C.2     1  ZINC000788423111   -0.0800
     21 C21       -14.8138   -3.1611   56.2273 C.2     1  ZINC000788423111   -0.1400
     22 C22       -14.7359   -4.2047   55.3968 C.2     1  ZINC000788423111   -0.2000
     23 S23       -13.2324   -5.0739   55.6740 S.3     1  ZINC000788423111    0.1700
     24 N24       -11.2431   -3.2986   58.8128 N.2     1  ZINC000788423111   -0.2900
     25 H25        -8.8950   -0.0007   59.3269 H       1  ZINC000788423111    0.3800
     26 H26        -9.2588   -1.7319   62.5355 H       1  ZINC000788423111    0.0900
     27 H27        -7.9679   -0.8693   61.6651 H       1  ZINC000788423111    0.0800
     28 H28       -11.9428    0.9135   63.1545 H       1  ZINC000788423111    0.1500
     29 H29       -10.2749    1.4777   67.0426 H       1  ZINC000788423111    0.1500
     30 H30        -7.7713    0.2587   63.8112 H       1  ZINC000788423111    0.1500
     31 H31        -8.3019   -3.3091   60.2918 H       1  ZINC000788423111    0.1300
     32 H32        -9.7638   -3.5329   61.2822 H       1  ZINC000788423111    0.1300
     33 H33       -13.6778   -2.2129   57.8047 H       1  ZINC000788423111    0.1500
     34 H34       -15.6544   -2.4831   56.2292 H       1  ZINC000788423111    0.1500
     35 H35       -15.4817   -4.4717   54.6628 H       1  ZINC000788423111    0.1700
@<TRIPOS>BOND
     1     1     2    1
     2     1    25    1
     3     2     3    1
     4     2     4    1
     5     2    14    1
     6     4     5    1
     7     4    26    1
     8     4    27    1
     9     5     6    1
    10     6    13   ar
    11     6     7   ar
    12     7     8   ar
    13     7    28    1
    14     8     9    1
    15     8    10   ar
    16    10    11   ar
    17    10    29    1
    18    11    12    1
    19    11    13   ar
    20    13    30    1
    21    14    15    1
    22    14    31    1
    23    14    32    1
    24    15    24    1
    25    15    16    1
    26    16    17    2
    27    17    18    1
    28    18    19    1
    29    18    24    2
    30    19    23    1
    31    19    20    2
    32    20    21    1
    33    20    33    1
    34    21    22    2
    35    21    34    1
    36    22    23    1
    37    22    35    1
@<TRIPOS>SUBSTRUCTURE
     1 ZINC000788423111        1 TEMP              0 ****  ****    0 ROOT


##########                                Name:    ZINC000284209281
##########                DOCK_Rotatable_Bonds:                   8
##########                         Heavy_Atoms:                  26
##########                    Molecular_Weight:             353.424
##########                DOCK_Rotatable_Bonds:                   8
##########                       Formal_Charge:          0.00999954
##########                     HBond_Acceptors:                   7
##########                        HBond_Donors:                   1
##########                         Heavy_Atoms:                  26
##########                          Grid_Score:          -35.298061
##########                     Grid_vdw_energy:          -33.265324
##########                      Grid_es_energy:           -2.032736
##########           Internal_energy_repulsive:           17.584862

@<TRIPOS>MOLECULE
ZINC000284209281
 49 51 1 0 0
SMALL
USER_CHARGES


@<TRIPOS>ATOM
      1 O1        -10.6753   -2.8973   56.4857 O.2     1  <0>        -0.5100
      2 C2        -10.9334   -3.5987   57.4417 C.2     1  <0>         0.5100
      3 N3        -12.0334   -4.3774   57.4287 N.am    1  <0>        -0.7000
      4 C4        -12.9207   -4.3724   56.2631 C.3     1  <0>         0.1200
      5 C5        -13.7504   -3.0869   56.2592 C.3     1  <0>        -0.1000
      6 C6        -14.3831   -2.8933   57.6131 C.ar    1  <0>        -0.0400
      7 C7        -14.8318   -3.9796   58.3487 C.ar    1  <0>        -0.1700
      8 C8        -15.4069   -3.7634   59.5866 C.ar    1  <0>         0.1000
      9 N9        -15.5313   -2.5423   60.0686 N.ar    1  <0>        -0.4900
     10 C10       -15.1160   -1.4861   59.3970 C.ar    1  <0>         0.1000
     11 C11       -14.5253   -1.6252   58.1553 C.ar    1  <0>        -0.1700
     12 C12       -10.0282   -3.6039   58.6308 C.2     1  <0>         0.5100
     13 O13        -9.0742   -4.3531   58.6640 O.2     1  <0>        -0.5200
     14 N14       -10.2716   -2.7764   59.6666 N.am    1  <0>        -0.5800
     15 C15        -9.3902   -2.7612   60.8438 C.3     1  <0>         0.0800
     16 C16        -8.9788   -1.3121   61.1253 C.3     1  <0>         0.0400
     17 N17       -10.1828   -0.4782   61.2398 N.3     1  <0>        -0.5300
     18 C18        -9.8415    0.8816   61.6786 C.3     1  <0>         0.1000
     19 C19       -10.0293    0.9902   63.1699 C.ar    1  <0>         0.1300
     20 C20        -9.0831    0.4479   64.0186 C.ar    1  <0>        -0.1500
     21 C21        -9.2651    0.5537   65.3892 C.ar    1  <0>        -0.0700
     22 C22       -10.3970    1.2038   65.8563 C.ar    1  <0>        -0.1700
     23 C23       -11.3001    1.7213   64.9468 C.ar    1  <0>         0.1000
     24 N24       -11.0919    1.6064   63.6499 N.ar    1  <0>        -0.4800
     25 C25       -10.9343   -0.4511   59.9780 C.3     1  <0>         0.0400
     26 C26       -11.4222   -1.8606   59.6469 C.3     1  <0>         0.1100
     27 H27       -12.2375   -4.9412   58.1912 H       1  <0>         0.4100
     28 H28       -12.3242   -4.4226   55.3521 H       1  <0>         0.0800
     29 H29       -13.5863   -5.2343   56.3094 H       1  <0>         0.0800
     30 H30       -13.1042   -2.2381   56.0354 H       1  <0>         0.0900
     31 H31       -14.5300   -3.1599   55.5008 H       1  <0>         0.0900
     32 H32       -14.7334   -4.9821   57.9591 H       1  <0>         0.1400
     33 H33       -15.7589   -4.6042   60.1659 H       1  <0>         0.1600
     34 H34       -15.2351   -0.5013   59.8242 H       1  <0>         0.1600
     35 H35       -14.1869   -0.7564   57.6104 H       1  <0>         0.1400
     36 H36        -9.9226   -3.1645   61.7052 H       1  <0>         0.0800
     37 H37        -8.5025   -3.3616   60.6445 H       1  <0>         0.1400
     38 H38        -8.4159   -1.2683   62.0576 H       1  <0>         0.0900
     39 H39        -8.3584   -0.9448   60.3078 H       1  <0>         0.0400
     40 H40        -8.8026    1.0947   61.4267 H       1  <0>         0.0900
     41 H41       -10.4913    1.5989   61.1773 H       1  <0>         0.0600
     42 H42        -8.2131   -0.0522   63.6195 H       1  <0>         0.1400
     43 H43        -8.5425    0.1392   66.0765 H       1  <0>         0.1400
     44 H44       -10.5711    1.3044   66.9174 H       1  <0>         0.1400
     45 H45       -12.1845    2.2288   65.3026 H       1  <0>         0.1600
     46 H46       -11.7895    0.2171   60.0782 H       1  <0>         0.1000
     47 H47       -10.2867   -0.0958   59.1764 H       1  <0>         0.0400
     48 H48       -11.8802   -1.8665   58.6577 H       1  <0>         0.1000
     49 H49       -12.1501   -2.1806   60.3924 H       1  <0>         0.0800
@<TRIPOS>BOND
     1     1     2    2
     2     2     3   am
     3     2    12    1
     4     3     4    1
     5     3    27    1
     6     4     5    1
     7     4    28    1
     8     4    29    1
     9     5     6    1
    10     5    30    1
    11     5    31    1
    12     6    11   ar
    13     6     7   ar
    14     7     8   ar
    15     7    32    1
    16     8     9   ar
    17     8    33    1
    18     9    10   ar
    19    10    11   ar
    20    10    34    1
    21    11    35    1
    22    12    13    2
    23    12    14   am
    24    14    26    1
    25    14    15    1
    26    15    16    1
    27    15    36    1
    28    15    37    1
    29    16    17    1
    30    16    38    1
    31    16    39    1
    32    17    18    1
    33    17    25    1
    34    18    19    1
    35    18    40    1
    36    18    41    1
    37    19    24   ar
    38    19    20   ar
    39    20    21   ar
    40    20    42    1
    41    21    22   ar
    42    21    43    1
    43    22    23   ar
    44    22    44    1
    45    23    24   ar
    46    23    45    1
    47    25    26    1
    48    25    46    1
    49    25    47    1
    50    26    48    1
    51    26    49    1
@<TRIPOS>SUBSTRUCTURE
     1 <0>         1 TEMP              0 ****  ****    0 ROOT


##########                                Name:    ZINC001500042809
##########                DOCK_Rotatable_Bonds:                   9
##########                         Heavy_Atoms:                  24
##########                    Molecular_Weight:              346.45
##########                DOCK_Rotatable_Bonds:                   9
##########                       Formal_Charge:           0.0200001
##########                     HBond_Acceptors:                   6
##########                        HBond_Donors:                   2
##########                         Heavy_Atoms:                  24
##########                          Grid_Score:          -35.265636
##########                     Grid_vdw_energy:          -34.267494
##########                      Grid_es_energy:           -0.998142
##########           Internal_energy_repulsive:           10.157280

@<TRIPOS>MOLECULE
ZINC001500042809
 46 47 1 0 0
SMALL
USER_CHARGES


@<TRIPOS>ATOM
      1 C1         -9.3663   -0.3495   62.0213 C.3     1  ZINC001500042809    0.0200
      2 O2         -9.1980   -1.7550   61.8264 O.3     1  ZINC001500042809   -0.3100
      3 C3         -9.8135   -2.3058   60.7495 C.ar    1  ZINC001500042809    0.1600
      4 C4         -9.0998   -3.1348   59.8920 C.ar    1  ZINC001500042809   -0.1600
      5 C5         -9.7207   -3.6952   58.7980 C.ar    1  ZINC001500042809   -0.0200
      6 C6        -11.0702   -3.4297   58.5508 C.ar    1  ZINC001500042809   -0.1800
      7 C7        -11.7395   -4.0283   57.3794 C.2     1  ZINC001500042809    0.5600
      8 O8        -11.6850   -5.2290   57.1957 O.2     1  ZINC001500042809   -0.5300
      9 N9        -12.4112   -3.2439   56.5133 N.am    1  ZINC001500042809   -0.7300
     10 C10       -13.0771   -3.8382   55.3515 C.3     1  ZINC001500042809    0.1300
     11 C11       -12.5446   -3.1903   54.0718 C.3     1  ZINC001500042809   -0.1200
     12 H12       -11.9654   -2.3030   54.3277 H       1  ZINC001500042809    0.0900
     13 C13       -11.6510   -4.1861   53.3297 C.3     1  ZINC001500042809   -0.1500
     14 C14       -13.7187   -2.7921   53.1752 C.3     1  ZINC001500042809    0.1300
     15 N15       -13.3110   -1.6934   52.2961 N.am    1  ZINC001500042809   -0.7300
     16 C16       -14.0660   -1.3695   51.2277 C.2     1  ZINC001500042809    0.5900
     17 O17       -15.0872   -1.9889   50.9941 O.2     1  ZINC001500042809   -0.5200
     18 C18       -13.6572   -0.2713   50.3471 C.2     1  ZINC001500042809   -0.2800
     19 C19       -13.7539   -0.2702   48.9841 C.2     1  ZINC001500042809   -0.0100
     20 C20       -14.3076   -1.4264   48.1918 C.3     1  ZINC001500042809   -0.1100
     21 C21       -13.2965    0.8909   48.4074 C.2     1  ZINC001500042809   -0.1500
     22 C22       -12.8405    1.8099   49.2666 C.2     1  ZINC001500042809   -0.2200
     23 S23       -12.9707    1.2586   50.8759 S.3     1  ZINC001500042809    0.1900
     24 C24       -11.7827   -2.5915   59.4123 C.ar    1  ZINC001500042809   -0.0400
     25 C25       -11.1558   -2.0389   60.5068 C.ar    1  ZINC001500042809   -0.2200
     26 H26        -8.9772    0.1866   61.1556 H       1  ZINC001500042809    0.0600
     27 H27       -10.4258   -0.1238   62.1424 H       1  ZINC001500042809    0.0600
     28 H28        -8.8243   -0.0391   62.9146 H       1  ZINC001500042809    0.1000
     29 H29        -8.0569   -3.3395   60.0837 H       1  ZINC001500042809    0.1400
     30 H30        -9.1653   -4.3387   58.1319 H       1  ZINC001500042809    0.1400
     31 H31       -12.4538   -2.2859   56.6593 H       1  ZINC001500042809    0.4000
     32 H32       -14.1518   -3.6707   55.4236 H       1  ZINC001500042809    0.0800
     33 H33       -12.8772   -4.9094   55.3268 H       1  ZINC001500042809    0.0800
     34 H34       -10.8146   -4.4698   53.9685 H       1  ZINC001500042809    0.0600
     35 H35       -12.2301   -5.0734   53.0739 H       1  ZINC001500042809    0.0600
     36 H36       -11.2717   -3.7245   52.4180 H       1  ZINC001500042809    0.0600
     37 H37       -14.0211   -3.6476   52.5714 H       1  ZINC001500042809    0.0800
     38 H38       -14.5560   -2.4704   53.7946 H       1  ZINC001500042809    0.0800
     39 H39       -12.4977   -1.1988   52.4830 H       1  ZINC001500042809    0.4000
     40 H40       -15.3832   -1.3002   48.0681 H       1  ZINC001500042809    0.0800
     41 H41       -13.8303   -1.4574   47.2124 H       1  ZINC001500042809    0.0700
     42 H42       -14.1098   -2.3580   48.7221 H       1  ZINC001500042809    0.0900
     43 H43       -13.3042    1.0495   47.3392 H       1  ZINC001500042809    0.1500
     44 H44       -12.4464    2.7737   48.9796 H       1  ZINC001500042809    0.1700
     45 H45       -12.8247   -2.3804   59.2221 H       1  ZINC001500042809    0.1300
     46 H46       -11.7068   -1.3936   61.1750 H       1  ZINC001500042809    0.1400
@<TRIPOS>BOND
     1     1     2    1
     2     1    26    1
     3     1    27    1
     4     1    28    1
     5     2     3    1
     6     3    25   ar
     7     3     4   ar
     8     4     5   ar
     9     4    29    1
    10     5     6   ar
    11     5    30    1
    12     6     7    1
    13     6    24   ar
    14     7     8    2
    15     7     9   am
    16     9    10    1
    17     9    31    1
    18    10    11    1
    19    10    32    1
    20    10    33    1
    21    11    12    1
    22    11    13    1
    23    11    14    1
    24    13    34    1
    25    13    35    1
    26    13    36    1
    27    14    15    1
    28    14    37    1
    29    14    38    1
    30    15    16   am
    31    15    39    1
    32    16    17    2
    33    16    18    1
    34    18    23    1
    35    18    19    2
    36    19    20    1
    37    19    21    1
    38    20    40    1
    39    20    41    1
    40    20    42    1
    41    21    22    2
    42    21    43    1
    43    22    23    1
    44    22    44    1
    45    24    25   ar
    46    24    45    1
    47    25    46    1
@<TRIPOS>SUBSTRUCTURE
     1 ZINC001500042809        1 TEMP              0 ****  ****    0 ROOT


##########                                Name:    ZINC000492313853
##########                DOCK_Rotatable_Bonds:                   8
##########                         Heavy_Atoms:                  30
##########                    Molecular_Weight:             418.422
##########                DOCK_Rotatable_Bonds:                   8
##########                       Formal_Charge:          -0.0100008
##########                     HBond_Acceptors:                  10
##########                        HBond_Donors:                   2
##########                         Heavy_Atoms:                  30
##########                          Grid_Score:          -35.265202
##########                     Grid_vdw_energy:          -36.370800
##########                      Grid_es_energy:            1.105598
##########           Internal_energy_repulsive:           20.571346

@<TRIPOS>MOLECULE
ZINC000492313853
 51 53 1 0 0
SMALL
USER_CHARGES


@<TRIPOS>ATOM
      1 C1         -7.5907   -1.0431   51.4480 C.3     1  ZINC000492313853    0.0900
      2 N2         -8.1509    0.0431   52.2560 N.pl3   1  ZINC000492313853   -0.6200
      3 C3         -7.5488    1.3777   52.2074 C.3     1  ZINC000492313853    0.1000
      4 C4         -9.2537   -0.1927   53.0688 C.ar    1  ZINC000492313853    0.4100
      5 C5        -10.0513   -1.3093   52.8413 C.ar    1  ZINC000492313853   -0.2400
      6 C6        -11.1454   -1.5321   53.6581 C.ar    1  ZINC000492313853   -0.0100
      7 C7        -11.4058   -0.6273   54.6784 C.ar    1  ZINC000492313853   -0.2300
      8 C8        -12.5864   -0.8303   55.5928 C.3     1  ZINC000492313853    0.2000
      9 N9        -12.2381   -1.8032   56.6313 N.am    1  ZINC000492313853   -0.7300
     10 C10       -11.5435   -1.4100   57.7173 C.2     1  ZINC000492313853    0.7100
     11 O11       -11.2070   -0.2476   57.8359 O.2     1  ZINC000492313853   -0.5600
     12 N12       -11.2217   -2.3053   58.6720 N.am    1  ZINC000492313853   -0.6600
     13 C13       -10.5012   -1.8987   59.7953 C.2     1  ZINC000492313853    0.3300
     14 C14       -10.8250   -0.8746   60.6277 C.2     1  ZINC000492313853   -0.2600
     15 C15        -9.8372   -0.8045   61.6277 C.2     1  ZINC000492313853    0.1200
     16 C16        -9.7974    0.1709   62.7456 C.ar    1  ZINC000492313853   -0.0100
     17 C17       -10.5439    1.3451   62.6757 C.ar    1  ZINC000492313853   -0.0600
     18 C18       -10.5036    2.2487   63.7185 C.ar    1  ZINC000492313853   -0.1200
     19 C19        -9.7241    1.9901   64.8312 C.ar    1  ZINC000492313853   -0.0700
     20 C20        -8.9809    0.8256   64.9059 C.ar    1  ZINC000492313853   -0.1900
     21 C21        -8.1342    0.5504   66.1217 C.3     1  ZINC000492313853    0.5100
     22 F22        -8.3984   -0.7407   66.5915 F       1  ZINC000492313853   -0.1800
     23 F23        -6.7813    0.6549   65.7812 F       1  ZINC000492313853   -0.1800
     24 F24        -8.4368    1.4812   67.1213 F       1  ZINC000492313853   -0.1800
     25 C25        -9.0178   -0.0871   63.8714 C.ar    1  ZINC000492313853   -0.0400
     26 N26        -8.9548   -1.7539   61.3996 N.2     1  ZINC000492313853   -0.2700
     27 N27        -9.3528   -2.4592   60.2570 N.pl3   1  ZINC000492313853   -0.3900
     28 C28        -8.6489   -3.5963   59.6586 C.3     1  ZINC000492313853    0.1000
     29 C29       -10.5718    0.4600   54.8472 C.ar    1  ZINC000492313853    0.1700
     30 N30        -9.5322    0.6447   54.0561 N.ar    1  ZINC000492313853   -0.5400
     31 H31        -6.8264   -1.5665   52.0225 H       1  ZINC000492313853    0.0600
     32 H32        -8.3834   -1.7408   51.1777 H       1  ZINC000492313853    0.0700
     33 H33        -7.1457   -0.6303   50.5427 H       1  ZINC000492313853    0.0700
     34 H34        -6.7018    1.3695   51.5211 H       1  ZINC000492313853    0.0700
     35 H35        -8.2897    2.0982   51.8613 H       1  ZINC000492313853    0.0600
     36 H36        -7.2066    1.6584   53.2034 H       1  ZINC000492313853    0.0600
     37 H37        -9.8199   -1.9928   52.0378 H       1  ZINC000492313853    0.1300
     38 H38       -11.7830   -2.3903   53.5051 H       1  ZINC000492313853    0.1400
     39 H39       -12.8525    0.1186   56.0586 H       1  ZINC000492313853    0.0800
     40 H40       -13.4331   -1.2020   55.0159 H       1  ZINC000492313853    0.0800
     41 H41       -12.5075   -2.7303   56.5374 H       1  ZINC000492313853    0.4000
     42 H42       -11.4912   -3.2324   58.5780 H       1  ZINC000492313853    0.4100
     43 H43       -11.6863   -0.2293   60.5375 H       1  ZINC000492313853    0.1800
     44 H44       -11.1527    1.5482   61.8071 H       1  ZINC000492313853    0.1400
     45 H45       -11.0817    3.1594   63.6652 H       1  ZINC000492313853    0.1400
     46 H46        -9.6952    2.6998   65.6447 H       1  ZINC000492313853    0.1400
     47 H47        -8.4373   -0.9958   63.9307 H       1  ZINC000492313853    0.1400
     48 H48        -9.0170   -4.5234   60.0979 H       1  ZINC000492313853    0.0800
     49 H49        -8.8263   -3.6083   58.5832 H       1  ZINC000492313853    0.0800
     50 H50        -7.5798   -3.5030   59.8495 H       1  ZINC000492313853    0.1000
     51 H51       -10.7706    1.1663   55.6398 H       1  ZINC000492313853    0.1600
@<TRIPOS>BOND
     1     1     2    1
     2     1    31    1
     3     1    32    1
     4     1    33    1
     5     2     3    1
     6     2     4    1
     7     3    34    1
     8     3    35    1
     9     3    36    1
    10     4    30   ar
    11     4     5   ar
    12     5     6   ar
    13     5    37    1
    14     6     7   ar
    15     6    38    1
    16     7     8    1
    17     7    29   ar
    18     8     9    1
    19     8    39    1
    20     8    40    1
    21     9    10   am
    22     9    41    1
    23    10    11    2
    24    10    12   am
    25    12    13    1
    26    12    42    1
    27    13    27    1
    28    13    14    2
    29    14    15    1
    30    14    43    1
    31    15    16    1
    32    15    26    2
    33    16    25   ar
    34    16    17   ar
    35    17    18   ar
    36    17    44    1
    37    18    19   ar
    38    18    45    1
    39    19    20   ar
    40    19    46    1
    41    20    21    1
    42    20    25   ar
    43    21    22    1
    44    21    23    1
    45    21    24    1
    46    25    47    1
    47    26    27    1
    48    27    28    1
    49    28    48    1
    50    28    49    1
    51    28    50    1
    52    29    30   ar
    53    29    51    1
@<TRIPOS>SUBSTRUCTURE
     1 ZINC000492313853        1 TEMP              0 ****  ****    0 ROOT


##########                                Name:    ZINC000373715094
##########                DOCK_Rotatable_Bonds:                   6
##########                         Heavy_Atoms:                  27
##########                    Molecular_Weight:             362.431
##########                DOCK_Rotatable_Bonds:                   6
##########                       Formal_Charge:           0.0299999
##########                     HBond_Acceptors:                   6
##########                        HBond_Donors:                   2
##########                         Heavy_Atoms:                  27
##########                          Grid_Score:          -35.259911
##########                     Grid_vdw_energy:          -34.803822
##########                      Grid_es_energy:           -0.456089
##########           Internal_energy_repulsive:           14.585670

@<TRIPOS>MOLECULE
ZINC000373715094
 49 52 1 0 0
SMALL
USER_CHARGES


@<TRIPOS>ATOM
      1 C1        -12.8503    0.2745   54.5600 C.3     1  ZINC000373715094    0.0900
      2 N2        -12.1860   -0.7327   53.7290 N.am    1  ZINC000373715094   -0.6100
      3 C3        -10.8958   -1.0882   53.8542 C.2     1  ZINC000373715094    0.5200
      4 O4        -10.1211   -0.6189   54.6607 O.2     1  ZINC000373715094   -0.5200
      5 C5        -10.5507   -2.1590   52.8428 C.3     1  ZINC000373715094   -0.1600
      6 C6        -11.9236   -2.6915   52.3710 C.3     1  ZINC000373715094   -0.1000
      7 H7        -11.9055   -2.9281   51.3072 H       1  ZINC000373715094    0.1100
      8 C8        -12.3505   -3.9094   53.1927 C.3     1  ZINC000373715094    0.1300
      9 N9        -12.4175   -3.5434   54.6096 N.am    1  ZINC000373715094   -0.7300
     10 C10       -12.9912   -4.3814   55.4957 C.2     1  ZINC000373715094    0.5200
     11 O11       -13.4508   -5.4391   55.1202 O.2     1  ZINC000373715094   -0.5200
     12 C12       -13.0617   -4.0040   56.9530 C.3     1  ZINC000373715094   -0.0600
     13 C13       -11.7230   -4.2483   57.6004 C.2     1  ZINC000373715094    0.1200
     14 N14       -10.9777   -5.3054   57.4471 N.2     1  ZINC000373715094   -0.2300
     15 N15        -9.8067   -5.1814   58.2019 N.pl3   1  ZINC000373715094   -0.5100
     16 C16        -9.8241   -3.9803   58.8617 C.ar    1  ZINC000373715094    0.1300
     17 C17        -8.9422   -3.3448   59.7319 C.ar    1  ZINC000373715094   -0.1400
     18 C18        -9.2533   -2.1136   60.2361 C.ar    1  ZINC000373715094   -0.0700
     19 C19       -10.4426   -1.4834   59.8920 C.ar    1  ZINC000373715094   -0.1600
     20 C20       -11.3261   -2.0823   59.0412 C.ar    1  ZINC000373715094   -0.0400
     21 C21       -11.0273   -3.3399   58.5062 C.ar    1  ZINC000373715094   -0.1600
     22 C22       -12.8455   -1.4877   52.6570 C.3     1  ZINC000373715094    0.1800
     23 H23       -13.8271   -1.8331   52.9816 H       1  ZINC000373715094    0.1000
     24 C24       -12.9766   -0.6272   51.4268 C.ar    1  ZINC000373715094   -0.1000
     25 C25       -13.6555   -1.1021   50.3203 C.ar    1  ZINC000373715094   -0.1000
     26 C26       -13.7757   -0.3127   49.1918 C.ar    1  ZINC000373715094   -0.1200
     27 C27       -13.2173    0.9516   49.1701 C.ar    1  ZINC000373715094   -0.1100
     28 C28       -12.5392    1.4269   50.2770 C.ar    1  ZINC000373715094   -0.1200
     29 C29       -12.4227    0.6392   51.4069 C.ar    1  ZINC000373715094   -0.1100
     30 H30       -13.2769   -0.2051   55.4409 H       1  ZINC000373715094    0.0600
     31 H31       -12.1240    1.0255   54.8710 H       1  ZINC000373715094    0.0800
     32 H32       -13.6443    0.7527   53.9863 H       1  ZINC000373715094    0.0700
     33 H33        -9.9997   -1.7300   52.0060 H       1  ZINC000373715094    0.1100
     34 H34        -9.9736   -2.9555   53.3125 H       1  ZINC000373715094    0.1100
     35 H35       -13.3311   -4.2478   52.8580 H       1  ZINC000373715094    0.0700
     36 H36       -11.6242   -4.7110   53.0584 H       1  ZINC000373715094    0.0800
     37 H37       -12.0488   -2.6980   54.9101 H       1  ZINC000373715094    0.4000
     38 H38       -13.3218   -2.9494   57.0430 H       1  ZINC000373715094    0.1200
     39 H39       -13.8209   -4.6091   57.4487 H       1  ZINC000373715094    0.1200
     40 H40        -9.0963   -5.8400   58.2507 H       1  ZINC000373715094    0.4400
     41 H41        -8.0146   -3.8241   60.0080 H       1  ZINC000373715094    0.1300
     42 H42        -8.5662   -1.6245   60.9107 H       1  ZINC000373715094    0.1300
     43 H43       -10.6704   -0.5105   60.3019 H       1  ZINC000373715094    0.1300
     44 H44       -12.2485   -1.5857   58.7786 H       1  ZINC000373715094    0.1300
     45 H45       -14.0917   -2.0899   50.3373 H       1  ZINC000373715094    0.1200
     46 H46       -14.3055   -0.6841   48.3271 H       1  ZINC000373715094    0.1200
     47 H47       -13.3106    1.5681   48.2881 H       1  ZINC000373715094    0.1200
     48 H48       -12.1027    2.4145   50.2598 H       1  ZINC000373715094    0.1300
     49 H49       -11.8929    1.0105   52.2717 H       1  ZINC000373715094    0.1300
@<TRIPOS>BOND
     1     1     2    1
     2     1    30    1
     3     1    31    1
     4     1    32    1
     5     2    22    1
     6     2     3   am
     7     3     4    2
     8     3     5    1
     9     5     6    1
    10     5    33    1
    11     5    34    1
    12     6     7    1
    13     6     8    1
    14     6    22    1
    15     8     9    1
    16     8    35    1
    17     8    36    1
    18     9    10   am
    19     9    37    1
    20    10    11    2
    21    10    12    1
    22    12    13    1
    23    12    38    1
    24    12    39    1
    25    13    21    1
    26    13    14    2
    27    14    15    1
    28    15    16    1
    29    15    40    1
    30    16    21   ar
    31    16    17   ar
    32    17    18   ar
    33    17    41    1
    34    18    19   ar
    35    18    42    1
    36    19    20   ar
    37    19    43    1
    38    20    21   ar
    39    20    44    1
    40    22    23    1
    41    22    24    1
    42    24    29   ar
    43    24    25   ar
    44    25    26   ar
    45    25    45    1
    46    26    27   ar
    47    26    46    1
    48    27    28   ar
    49    27    47    1
    50    28    29   ar
    51    28    48    1
    52    29    49    1
@<TRIPOS>SUBSTRUCTURE
     1 ZINC000373715094        1 TEMP              0 ****  ****    0 ROOT


##########                                Name:    ZINC000508571532
##########                DOCK_Rotatable_Bonds:                   9
##########                         Heavy_Atoms:                  30
##########                    Molecular_Weight:             422.407
##########                DOCK_Rotatable_Bonds:                   9
##########                       Formal_Charge:           0.0100001
##########                     HBond_Acceptors:                  10
##########                        HBond_Donors:                   0
##########                         Heavy_Atoms:                  30
##########                          Grid_Score:          -35.229538
##########                     Grid_vdw_energy:          -34.740444
##########                      Grid_es_energy:           -0.489095
##########           Internal_energy_repulsive:           25.063627

@<TRIPOS>MOLECULE
ZINC000508571532
 51 53 1 0 0
SMALL
USER_CHARGES


@<TRIPOS>ATOM
      1 C1        -11.4776    0.1615   52.4075 C.3     1  ZINC000508571532    0.0300
      2 O2        -11.4153   -1.2101   52.0116 O.3     1  ZINC000508571532   -0.3200
      3 C3        -11.8197   -2.1348   52.9229 C.ar    1  ZINC000508571532    0.0900
      4 C4        -12.2416   -1.7304   54.1807 C.ar    1  ZINC000508571532   -0.1700
      5 C5        -12.6524   -2.6697   55.1065 C.ar    1  ZINC000508571532   -0.1100
      6 C6        -12.6436   -4.0172   54.7780 C.ar    1  ZINC000508571532    0.0900
      7 O7        -13.0475   -4.9418   55.6895 O.3     1  ZINC000508571532   -0.3100
      8 C8        -13.3035   -4.4763   57.0161 C.3     1  ZINC000508571532    0.1500
      9 C9        -12.0041   -4.0818   57.6696 C.2     1  ZINC000508571532    0.1700
     10 N10       -10.8167   -4.5120   57.3492 N.2     1  ZINC000508571532   -0.2500
     11 N11        -9.9323   -3.9718   58.1094 N.2     1  ZINC000508571532   -0.3000
     12 C12       -10.5127   -3.1611   58.9624 C.2     1  ZINC000508571532    0.3500
     13 N13        -9.8837   -2.4028   59.9370 N.3     1  ZINC000508571532   -0.4600
     14 C14        -9.0791   -3.2511   60.8263 C.3     1  ZINC000508571532    0.0300
     15 C15        -9.0622   -1.3455   59.3327 C.3     1  ZINC000508571532    0.1100
     16 C16        -9.4527   -0.0114   59.9147 C.ar    1  ZINC000508571532   -0.0900
     17 C17        -9.9068    0.0685   61.2167 C.ar    1  ZINC000508571532   -0.0600
     18 C18       -10.2658    1.2923   61.7512 C.ar    1  ZINC000508571532   -0.1300
     19 C19       -10.1707    2.4386   60.9845 C.ar    1  ZINC000508571532   -0.0700
     20 C20        -9.7166    2.3642   59.6817 C.ar    1  ZINC000508571532   -0.1900
     21 C21        -9.3510    1.1385   59.1449 C.ar    1  ZINC000508571532    0.1100
     22 O22        -8.9040    1.0627   57.8638 O.3     1  ZINC000508571532   -0.3100
     23 C23        -9.8762    1.2145   56.8275 C.3     1  ZINC000508571532    0.6000
     24 F24        -9.4495    0.5310   55.6838 F       1  ZINC000508571532   -0.1600
     25 F25       -11.1000    0.6888   57.2555 F       1  ZINC000508571532   -0.1300
     26 F26       -10.0309    2.5724   56.5286 F       1  ZINC000508571532   -0.1600
     27 N27       -11.8521   -3.2013   58.7048 N.pl3   1  ZINC000508571532   -0.4500
     28 C28       -12.9090   -2.4622   59.3996 C.3     1  ZINC000508571532    0.0800
     29 C29       -12.2231   -4.4215   53.5197 C.ar    1  ZINC000508571532   -0.1700
     30 C30       -11.8158   -3.4819   52.5926 C.ar    1  ZINC000508571532   -0.1100
     31 H31       -11.1275    0.7919   51.5902 H       1  ZINC000508571532    0.1000
     32 H32       -12.5071    0.4226   52.6525 H       1  ZINC000508571532    0.0600
     33 H33       -10.8455    0.3162   53.2821 H       1  ZINC000508571532    0.0600
     34 H34       -12.2485   -0.6812   54.4365 H       1  ZINC000508571532    0.1400
     35 H35       -12.9802   -2.3548   56.0862 H       1  ZINC000508571532    0.1300
     36 H36       -13.9671   -3.6125   56.9764 H       1  ZINC000508571532    0.0800
     37 H37       -13.7750   -5.2703   57.5951 H       1  ZINC000508571532    0.1000
     38 H38        -8.2317   -3.6563   60.2733 H       1  ZINC000508571532    0.0600
     39 H39        -8.7153   -2.6567   61.6644 H       1  ZINC000508571532    0.0800
     40 H40        -9.6932   -4.0699   61.2011 H       1  ZINC000508571532    0.0700
     41 H41        -8.0100   -1.5390   59.5414 H       1  ZINC000508571532    0.0700
     42 H42        -9.2224   -1.3325   58.2546 H       1  ZINC000508571532    0.0900
     43 H43        -9.9820   -0.8258   61.8176 H       1  ZINC000508571532    0.1400
     44 H44       -10.6213    1.3525   62.7692 H       1  ZINC000508571532    0.1300
     45 H45       -10.4519    3.3932   61.4041 H       1  ZINC000508571532    0.1400
     46 H46        -9.6428    3.2601   59.0831 H       1  ZINC000508571532    0.1400
     47 H47       -13.1308   -1.5455   58.8531 H       1  ZINC000508571532    0.0900
     48 H48       -13.8066   -3.0781   59.4555 H       1  ZINC000508571532    0.0900
     49 H49       -12.5760   -2.2130   60.4071 H       1  ZINC000508571532    0.1000
     50 H50       -12.2164   -5.4707   53.2638 H       1  ZINC000508571532    0.1400
     51 H51       -11.4884   -3.7967   51.6128 H       1  ZINC000508571532    0.1400
@<TRIPOS>BOND
     1     1     2    1
     2     1    31    1
     3     1    32    1
     4     1    33    1
     5     2     3    1
     6     3    30   ar
     7     3     4   ar
     8     4     5   ar
     9     4    34    1
    10     5     6   ar
    11     5    35    1
    12     6     7    1
    13     6    29   ar
    14     7     8    1
    15     8     9    1
    16     8    36    1
    17     8    37    1
    18     9    27    1
    19     9    10    2
    20    10    11    1
    21    11    12    2
    22    12    13    1
    23    12    27    1
    24    13    14    1
    25    13    15    1
    26    14    38    1
    27    14    39    1
    28    14    40    1
    29    15    16    1
    30    15    41    1
    31    15    42    1
    32    16    21   ar
    33    16    17   ar
    34    17    18   ar
    35    17    43    1
    36    18    19   ar
    37    18    44    1
    38    19    20   ar
    39    19    45    1
    40    20    21   ar
    41    20    46    1
    42    21    22    1
    43    22    23    1
    44    23    24    1
    45    23    25    1
    46    23    26    1
    47    27    28    1
    48    28    47    1
    49    28    48    1
    50    28    49    1
    51    29    30   ar
    52    29    50    1
    53    30    51    1
@<TRIPOS>SUBSTRUCTURE
     1 ZINC000508571532        1 TEMP              0 ****  ****    0 ROOT


##########                                Name:    ZINC000269356812
##########                DOCK_Rotatable_Bonds:                  10
##########                         Heavy_Atoms:                  25
##########                    Molecular_Weight:             387.431
##########                DOCK_Rotatable_Bonds:                  10
##########                       Formal_Charge:          0.00999978
##########                     HBond_Acceptors:                  10
##########                        HBond_Donors:                   3
##########                         Heavy_Atoms:                  25
##########                          Grid_Score:          -35.208511
##########                     Grid_vdw_energy:          -34.064838
##########                      Grid_es_energy:           -1.143674
##########           Internal_energy_repulsive:            8.508856

@<TRIPOS>MOLECULE
ZINC000269356812
 40 41 1 0 0
SMALL
USER_CHARGES


@<TRIPOS>ATOM
      1 C1         -0.5848    2.9857   48.7236 C.3     1  ZINC000269356812   -0.1400
      2 C2         -1.9157    2.2320   48.6845 C.3     1  ZINC000269356812    0.2000
      3 O3         -1.9292    1.2356   49.7088 O.3     1  ZINC000269356812   -0.5400
      4 C4         -3.0655    3.2150   48.9141 C.3     1  ZINC000269356812    0.0900
      5 N5         -4.3050    2.4704   49.1491 N.am    1  ZINC000269356812   -0.6900
      6 C6         -4.7110    2.2180   50.4092 C.2     1  ZINC000269356812    0.5100
      7 O7         -4.0489    2.6063   51.3493 O.2     1  ZINC000269356812   -0.5100
      8 C8         -5.9754    1.4606   50.6487 C.2     1  ZINC000269356812    0.5100
      9 O9         -6.8263    1.4112   49.7844 O.2     1  ZINC000269356812   -0.4900
     10 N10        -6.1720    0.8320   51.8246 N.am    1  ZINC000269356812   -0.6400
     11 C11        -7.3568    0.1223   52.0491 C.ar    1  ZINC000269356812    0.0900
     12 C12        -8.4405    0.7379   52.6750 C.ar    1  ZINC000269356812   -0.0600
     13 C13        -9.5914   -0.0009   52.8760 C.ar    1  ZINC000269356812   -0.1200
     14 C14        -9.6305   -1.3252   52.4503 C.ar    1  ZINC000269356812    0.1000
     15 S15       -11.0917   -2.2777   52.6999 S.3     1  ZINC000269356812   -0.0600
     16 C16       -12.3755   -1.2709   51.9071 C.3     1  ZINC000269356812    0.2900
     17 F17       -13.4295   -2.0957   51.4995 F       1  ZINC000269356812   -0.1700
     18 F18       -12.8518   -0.3211   52.8173 F       1  ZINC000269356812   -0.1700
     19 N19        -8.5819   -1.8775   51.8590 N.ar    1  ZINC000269356812   -0.4600
     20 C20        -7.4699   -1.2006   51.6464 C.ar    1  ZINC000269356812    0.1100
     21 C21        -2.0800    1.5721   47.3397 C.2     1  ZINC000269356812   -0.2300
     22 C22        -1.6326    0.3569   47.0196 C.2     1  ZINC000269356812   -0.1100
     23 C23        -1.9019   -0.0406   45.7213 C.2     1  ZINC000269356812   -0.1400
     24 C24        -2.5680    0.8518   44.9870 C.2     1  ZINC000269356812   -0.2000
     25 S25        -2.8976    2.2834   45.9544 S.3     1  ZINC000269356812    0.1100
     26 H26         0.2343    2.2853   48.5600 H       1  ZINC000269356812    0.0800
     27 H27        -0.5746    3.7456   47.9423 H       1  ZINC000269356812    0.0800
     28 H28        -0.4659    3.4630   49.6963 H       1  ZINC000269356812    0.0700
     29 H29        -1.9050    1.5941   50.6066 H       1  ZINC000269356812    0.3800
     30 H30        -2.8445    3.8361   49.7822 H       1  ZINC000269356812    0.0900
     31 H31        -3.1831    3.8483   48.0348 H       1  ZINC000269356812    0.0900
     32 H32        -4.8337    2.1590   48.3977 H       1  ZINC000269356812    0.4200
     33 H33        -5.4921    0.8717   52.5154 H       1  ZINC000269356812    0.4300
     34 H34        -8.3818    1.7676   52.9954 H       1  ZINC000269356812    0.1600
     35 H35       -10.4495    0.4441   53.3579 H       1  ZINC000269356812    0.1500
     36 H36       -11.9548   -0.7633   51.0390 H       1  ZINC000269356812    0.1500
     37 H37        -6.6350   -1.6843   51.1612 H       1  ZINC000269356812    0.1700
     38 H38        -1.1002   -0.2693   47.7202 H       1  ZINC000269356812    0.1500
     39 H39        -1.5955   -1.0004   45.3323 H       1  ZINC000269356812    0.1400
     40 H40        -2.8630    0.7148   43.9571 H       1  ZINC000269356812    0.1700
@<TRIPOS>BOND
     1     1     2    1
     2     1    26    1
     3     1    27    1
     4     1    28    1
     5     2     3    1
     6     2     4    1
     7     2    21    1
     8     3    29    1
     9     4     5    1
    10     4    30    1
    11     4    31    1
    12     5     6   am
    13     5    32    1
    14     6     7    2
    15     6     8    1
    16     8     9    2
    17     8    10   am
    18    10    11    1
    19    10    33    1
    20    11    20   ar
    21    11    12   ar
    22    12    13   ar
    23    12    34    1
    24    13    14   ar
    25    13    35    1
    26    14    15    1
    27    14    19   ar
    28    15    16    1
    29    16    17    1
    30    16    18    1
    31    16    36    1
    32    19    20   ar
    33    20    37    1
    34    21    25    1
    35    21    22    2
    36    22    23    1
    37    22    38    1
    38    23    24    2
    39    23    39    1
    40    24    25    1
    41    24    40    1
@<TRIPOS>SUBSTRUCTURE
     1 ZINC000269356812        1 TEMP              0 ****  ****    0 ROOT


##########                                Name:    ZINC000429196987
##########                DOCK_Rotatable_Bonds:                   7
##########                         Heavy_Atoms:                  28
##########                    Molecular_Weight:             403.505
##########                DOCK_Rotatable_Bonds:                   7
##########                       Formal_Charge:          -0.0399997
##########                     HBond_Acceptors:                   9
##########                        HBond_Donors:                   1
##########                         Heavy_Atoms:                  28
##########                          Grid_Score:          -35.169586
##########                     Grid_vdw_energy:          -34.299236
##########                      Grid_es_energy:           -0.870349
##########           Internal_energy_repulsive:           12.034351

@<TRIPOS>MOLECULE
ZINC000429196987
 53 55 1 0 0
SMALL
USER_CHARGES


@<TRIPOS>ATOM
      1 C1        -10.8901   -3.7284   54.2054 C.3     1  ZINC000429196987    0.0800
      2 N2        -11.0986   -2.2791   54.1548 N.am    1  ZINC000429196987   -0.6300
      3 C3        -11.3042   -1.6133   52.8662 C.3     1  ZINC000429196987    0.1600
      4 C4        -10.0693   -0.8298   52.5029 C.ar    1  ZINC000429196987   -0.0600
      5 C5        -10.1277    0.5481   52.4090 C.ar    1  ZINC000429196987   -0.1300
      6 C6         -8.9948    1.2668   52.0757 C.ar    1  ZINC000429196987   -0.0300
      7 C7         -7.8035    0.6076   51.8367 C.ar    1  ZINC000429196987   -0.6600
      8 S8         -6.3597    1.5237   51.4114 S.o2    1  ZINC000429196987    2.5000
      9 C9         -6.1298    2.6744   52.7947 C.3     1  ZINC000429196987   -0.6500
     10 O10        -5.3219    0.5532   51.3924 O.2     1  ZINC000429196987   -0.9400
     11 O11        -6.7259    2.2277   50.2326 O.2     1  ZINC000429196987   -0.9400
     12 C12        -7.7448   -0.7702   51.9320 C.ar    1  ZINC000429196987   -0.0300
     13 C13        -8.8767   -1.4886   52.2690 C.ar    1  ZINC000429196987   -0.1100
     14 C14       -11.1013   -1.5585   55.2937 C.2     1  ZINC000429196987    0.7100
     15 O15       -11.2758   -0.3560   55.2518 O.2     1  ZINC000429196987   -0.5800
     16 N16       -10.9106   -2.1709   56.4790 N.am    1  ZINC000429196987   -0.7400
     17 C17       -10.9118   -1.3873   57.7169 C.3     1  ZINC000429196987    0.1600
     18 C18       -11.7905   -2.0816   58.7612 C.3     1  ZINC000429196987   -0.1300
     19 C19       -11.7392   -1.2912   60.0707 C.3     1  ZINC000429196987    0.0700
     20 N20       -10.3513   -1.2160   60.5445 N.3     1  ZINC000429196987   -0.4700
     21 C21       -10.2844   -0.6181   61.7981 C.ar    1  ZINC000429196987    0.2500
     22 C22        -9.1456   -0.7722   62.5879 C.ar    1  ZINC000429196987   -0.1300
     23 C23        -9.1289   -0.1562   63.8293 C.ar    1  ZINC000429196987   -0.1000
     24 C24       -10.2452    0.5752   64.2098 C.ar    1  ZINC000429196987    0.0200
     25 N25       -11.2802    0.6685   63.3989 N.ar    1  ZINC000429196987   -0.2200
     26 N26       -11.3005    0.1053   62.2456 N.ar    1  ZINC000429196987   -0.2800
     27 C27        -9.4982   -0.5113   59.5792 C.3     1  ZINC000429196987    0.0600
     28 C28        -9.4825   -1.2784   58.2550 C.3     1  ZINC000429196987   -0.1200
     29 H29        -9.8245   -3.9450   54.1301 H       1  ZINC000429196987    0.0600
     30 H30       -11.2743   -4.1180   55.1482 H       1  ZINC000429196987    0.0700
     31 H31       -11.4164   -4.2004   53.3758 H       1  ZINC000429196987    0.0800
     32 H32       -11.4991   -2.3614   52.0977 H       1  ZINC000429196987    0.1000
     33 H33       -12.1556   -0.9365   52.9386 H       1  ZINC000429196987    0.0900
     34 H34       -11.0584    1.0631   52.5957 H       1  ZINC000429196987    0.1300
     35 H35        -9.0405    2.3433   52.0017 H       1  ZINC000429196987    0.1400
     36 H36        -5.9967    2.1106   53.7181 H       1  ZINC000429196987    0.1300
     37 H37        -5.2478    3.2886   52.6136 H       1  ZINC000429196987    0.1300
     38 H38        -7.0069    3.3154   52.8836 H       1  ZINC000429196987    0.1300
     39 H39        -6.8139   -1.2853   51.7456 H       1  ZINC000429196987    0.1400
     40 H40        -8.8308   -2.5650   52.3434 H       1  ZINC000429196987    0.1400
     41 H41       -10.7726   -3.1304   56.5126 H       1  ZINC000429196987    0.4000
     42 H42       -11.3025   -0.3897   57.5161 H       1  ZINC000429196987    0.0900
     43 H43       -12.8186   -2.1239   58.4016 H       1  ZINC000429196987    0.0800
     44 H44       -11.4222   -3.0931   58.9321 H       1  ZINC000429196987    0.0700
     45 H45       -12.1205   -0.2841   59.9021 H       1  ZINC000429196987    0.0600
     46 H46       -12.3524   -1.7908   60.8207 H       1  ZINC000429196987    0.0900
     47 H47        -8.3033   -1.3536   62.2432 H       1  ZINC000429196987    0.1500
     48 H48        -8.2725   -0.2431   64.4815 H       1  ZINC000429196987    0.1500
     49 H49       -10.2660    1.0680   65.1707 H       1  ZINC000429196987    0.1700
     50 H50        -9.8899    0.4921   59.4130 H       1  ZINC000429196987    0.0500
     51 H51        -8.4836   -0.4445   59.9721 H       1  ZINC000429196987    0.0900
     52 H52        -9.0779   -2.2774   58.4178 H       1  ZINC000429196987    0.0800
     53 H53        -8.8616   -0.7469   57.5338 H       1  ZINC000429196987    0.0800
@<TRIPOS>BOND
     1     1     2    1
     2     1    29    1
     3     1    30    1
     4     1    31    1
     5     2     3    1
     6     2    14   am
     7     3     4    1
     8     3    32    1
     9     3    33    1
    10     4    13   ar
    11     4     5   ar
    12     5     6   ar
    13     5    34    1
    14     6     7   ar
    15     6    35    1
    16     7     8    1
    17     7    12   ar
    18     8     9    1
    19     8    10    2
    20     8    11    2
    21     9    36    1
    22     9    37    1
    23     9    38    1
    24    12    13   ar
    25    12    39    1
    26    13    40    1
    27    14    15    2
    28    14    16   am
    29    16    17    1
    30    16    41    1
    31    17    28    1
    32    17    18    1
    33    17    42    1
    34    18    19    1
    35    18    43    1
    36    18    44    1
    37    19    20    1
    38    19    45    1
    39    19    46    1
    40    20    21    1
    41    20    27    1
    42    21    26   ar
    43    21    22   ar
    44    22    23   ar
    45    22    47    1
    46    23    24   ar
    47    23    48    1
    48    24    25   ar
    49    24    49    1
    50    25    26   ar
    51    27    28    1
    52    27    50    1
    53    27    51    1
    54    28    52    1
    55    28    53    1
@<TRIPOS>SUBSTRUCTURE
     1 ZINC000429196987        1 TEMP              0 ****  ****    0 ROOT


##########                                Name:    ZINC000274225049
##########                DOCK_Rotatable_Bonds:                   6
##########                         Heavy_Atoms:                  25
##########                    Molecular_Weight:             380.895
##########                DOCK_Rotatable_Bonds:                   6
##########                       Formal_Charge:           0.0200006
##########                     HBond_Acceptors:                   7
##########                        HBond_Donors:                   2
##########                         Heavy_Atoms:                  25
##########                          Grid_Score:          -35.149330
##########                     Grid_vdw_energy:          -31.807590
##########                      Grid_es_energy:           -3.341738
##########           Internal_energy_repulsive:           12.033617

@<TRIPOS>MOLECULE
ZINC000274225049
 46 48 1 0 0
SMALL
USER_CHARGES


@<TRIPOS>ATOM
      1 C1        -10.1049    1.0203   60.9742 C.3     1  ZINC000274225049   -0.1600
      2 C2        -10.3025   -0.3230   61.6793 C.3     1  ZINC000274225049    0.2000
      3 H3        -11.2280   -0.2987   62.2547 H       1  ZINC000274225049    0.1100
      4 N4         -9.1742   -0.5725   62.5798 N.am    1  ZINC000274225049   -0.7400
      5 C5         -9.2039   -0.1042   63.8432 C.2     1  ZINC000274225049    0.7100
      6 O6        -10.1678    0.5242   64.2360 O.2     1  ZINC000274225049   -0.5800
      7 N7         -8.1652   -0.3323   64.6711 N.am    1  ZINC000274225049   -0.7500
      8 C8         -8.1982    0.1752   66.0449 C.3     1  ZINC000274225049    0.1500
      9 C9         -7.4756    1.5223   66.1085 C.3     1  ZINC000274225049   -0.1000
     10 H10        -7.9506    2.2328   65.4320 H       1  ZINC000274225049    0.1000
     11 C11        -5.9946    1.3442   65.7308 C.3     1  ZINC000274225049   -0.1100
     12 C12        -5.2263    2.6207   66.1272 C.3     1  ZINC000274225049   -0.5900
     13 S13        -6.1601    3.3202   67.5359 S.o2    1  ZINC000274225049    2.3900
     14 O14        -5.3848    3.2009   68.7207 O.2     1  ZINC000274225049   -0.9300
     15 O15        -6.6961    4.5830   67.1650 O.2     1  ZINC000274225049   -0.9300
     16 C16        -7.5017    2.0710   67.5585 C.3     1  ZINC000274225049   -0.5900
     17 C17       -10.3784   -1.4231   60.6522 C.ar    1  ZINC000274225049   -0.0700
     18 C18       -11.6085   -1.7498   60.0572 C.ar    1  ZINC000274225049   -0.0300
     19 C19       -12.7887   -1.0676   60.3994 C.ar    1  ZINC000274225049   -0.1100
     20 C20       -13.9622   -1.4110   59.8021 C.ar    1  ZINC000274225049   -0.1100
     21 C21       -14.0133   -2.4312   58.8539 C.ar    1  ZINC000274225049   -0.1100
     22 C22       -12.8908   -3.1136   58.4976 C.ar    1  ZINC000274225049   -0.1000
     23 C23       -11.6605   -2.7872   59.0929 C.ar    1  ZINC000274225049   -0.0400
     24 C24       -10.4796   -3.4693   58.7502 C.ar    1  ZINC000274225049   -0.0300
     25 Cl25      -10.5180   -4.7430   57.5712 Cl      1  ZINC000274225049   -0.0600
     26 C26        -9.3049   -3.1246   59.3483 C.ar    1  ZINC000274225049   -0.1000
     27 C27        -9.2541   -2.1014   60.2923 C.ar    1  ZINC000274225049   -0.1000
     28 H28       -10.0501    1.8161   61.7170 H       1  ZINC000274225049    0.0700
     29 H29        -9.1794    0.9960   60.3988 H       1  ZINC000274225049    0.0700
     30 H30       -10.9445    1.2059   60.3042 H       1  ZINC000274225049    0.0800
     31 H31        -8.4056   -1.0748   62.2667 H       1  ZINC000274225049    0.4000
     32 H32        -7.3956   -0.8326   64.3572 H       1  ZINC000274225049    0.4000
     33 H33        -9.2338    0.3031   66.3602 H       1  ZINC000274225049    0.0800
     34 H34        -7.7021   -0.5348   66.7066 H       1  ZINC000274225049    0.0800
     35 H35        -5.5811    0.4875   66.2629 H       1  ZINC000274225049    0.0900
     36 H36        -5.9073    1.1828   64.6563 H       1  ZINC000274225049    0.0900
     37 H37        -4.2103    2.3713   66.4332 H       1  ZINC000274225049    0.1400
     38 H38        -5.2099    3.3260   65.2964 H       1  ZINC000274225049    0.1400
     39 H39        -8.4615    2.5379   67.7793 H       1  ZINC000274225049    0.1400
     40 H40        -7.2814    1.2795   68.2748 H       1  ZINC000274225049    0.1400
     41 H41       -12.7643   -0.2751   61.1328 H       1  ZINC000274225049    0.1300
     42 H42       -14.8678   -0.8855   60.0671 H       1  ZINC000274225049    0.1300
     43 H43       -14.9576   -2.6843   58.3951 H       1  ZINC000274225049    0.1300
     44 H44       -12.9456   -3.9020   57.7616 H       1  ZINC000274225049    0.1300
     45 H45        -8.3991   -3.6500   59.0839 H       1  ZINC000274225049    0.1300
     46 H46        -8.3102   -1.8480   60.7515 H       1  ZINC000274225049    0.1300
@<TRIPOS>BOND
     1     1     2    1
     2     1    28    1
     3     1    29    1
     4     1    30    1
     5     2     3    1
     6     2     4    1
     7     2    17    1
     8     4     5   am
     9     4    31    1
    10     5     6    2
    11     5     7   am
    12     7     8    1
    13     7    32    1
    14     8     9    1
    15     8    33    1
    16     8    34    1
    17     9    10    1
    18     9    16    1
    19     9    11    1
    20    11    12    1
    21    11    35    1
    22    11    36    1
    23    12    13    1
    24    12    37    1
    25    12    38    1
    26    13    14    2
    27    13    15    2
    28    13    16    1
    29    16    39    1
    30    16    40    1
    31    17    27   ar
    32    17    18   ar
    33    18    23   ar
    34    18    19   ar
    35    19    20   ar
    36    19    41    1
    37    20    21   ar
    38    20    42    1
    39    21    22   ar
    40    21    43    1
    41    22    23   ar
    42    22    44    1
    43    23    24   ar
    44    24    25    1
    45    24    26   ar
    46    26    27   ar
    47    26    45    1
    48    27    46    1
@<TRIPOS>SUBSTRUCTURE
     1 ZINC000274225049        1 TEMP              0 ****  ****    0 ROOT


##########                                Name:    ZINC000538774026
##########                DOCK_Rotatable_Bonds:                  10
##########                         Heavy_Atoms:                  29
##########                    Molecular_Weight:             414.496
##########                DOCK_Rotatable_Bonds:                  10
##########                       Formal_Charge:            0.049999
##########                     HBond_Acceptors:                   9
##########                        HBond_Donors:                   2
##########                         Heavy_Atoms:                  29
##########                          Grid_Score:          -35.118752
##########                     Grid_vdw_energy:          -33.894569
##########                      Grid_es_energy:           -1.224182
##########           Internal_energy_repulsive:           22.075771

@<TRIPOS>MOLECULE
ZINC000538774026
 61 62 1 0 0
SMALL
USER_CHARGES


@<TRIPOS>ATOM
      1 C1         -8.5272   -0.1618   63.4421 C.3     1  ZINC000538774026   -0.1500
      2 C2         -9.9146    0.1003   62.8526 C.3     1  ZINC000538774026   -0.1100
      3 C3        -10.7558    0.8880   63.8590 C.3     1  ZINC000538774026   -0.1400
      4 C4         -9.7755    0.9084   61.5610 C.3     1  ZINC000538774026    0.1400
      5 N5         -9.6586   -0.0065   60.4227 N.pl3   1  ZINC000538774026   -0.3400
      6 N6         -9.0448   -1.2655   60.4366 N.2     1  ZINC000538774026   -0.2500
      7 C7         -9.1384   -1.7829   59.2385 C.2     1  ZINC000538774026    0.0500
      8 C8         -9.8162   -0.8715   58.4159 C.2     1  ZINC000538774026    0.0800
      9 N9        -10.1212   -1.0524   57.0528 N.am    1  ZINC000538774026   -0.6600
     10 C10       -10.9355   -2.0566   56.6720 C.2     1  ZINC000538774026    0.7100
     11 O11       -11.4081   -2.8054   57.5054 O.2     1  ZINC000538774026   -0.5700
     12 N12       -11.2260   -2.2307   55.3675 N.am    1  ZINC000538774026   -0.7300
     13 C13       -12.1097   -3.3233   54.9534 C.3     1  ZINC000538774026    0.1600
     14 C14       -13.5282   -2.7848   54.7555 C.3     1  ZINC000538774026   -0.1300
     15 C15       -13.5162   -1.7013   53.6753 C.3     1  ZINC000538774026   -0.1000
     16 C16       -13.0089   -2.2972   52.3607 C.3     1  ZINC000538774026   -0.0800
     17 C17       -12.9971   -1.2298   51.2968 C.2     1  ZINC000538774026    0.4700
     18 O18       -12.7653   -0.0821   51.5951 O.2     1  ZINC000538774026   -0.5000
     19 O19       -13.2442   -1.5542   50.0180 O.3     1  ZINC000538774026   -0.3500
     20 C20       -14.3277   -0.8492   49.3566 C.3     1  ZINC000538774026    0.1200
     21 C21       -14.8455   -1.6906   48.1884 C.3     1  ZINC000538774026   -0.1800
     22 C22       -15.4627   -0.6077   50.3538 C.3     1  ZINC000538774026   -0.1400
     23 C23       -13.8165    0.4936   48.8308 C.3     1  ZINC000538774026   -0.1800
     24 C24       -11.5905   -2.8356   52.5586 C.3     1  ZINC000538774026   -0.1100
     25 C25       -11.6024   -3.9192   53.6386 C.3     1  ZINC000538774026   -0.1300
     26 C26       -10.1314    0.2133   59.1683 C.2     1  ZINC000538774026   -0.0500
     27 C27       -10.8646    1.4422   58.6956 C.3     1  ZINC000538774026    0.3500
     28 F28       -10.0442    2.1692   57.8264 F       1  ZINC000538774026   -0.1900
     29 F29       -12.0315    1.0599   58.0252 F       1  ZINC000538774026   -0.1900
     30 H30        -8.6262   -0.7375   64.3623 H       1  ZINC000538774026    0.0600
     31 H31        -7.9280   -0.7230   62.7251 H       1  ZINC000538774026    0.0600
     32 H32        -8.0390    0.7884   63.6587 H       1  ZINC000538774026    0.0600
     33 H33       -10.4028   -0.8499   62.6360 H       1  ZINC000538774026    0.0800
     34 H34       -10.2676    1.8382   64.0756 H       1  ZINC000538774026    0.0600
     35 H35       -11.7441    1.0749   63.4390 H       1  ZINC000538774026    0.0600
     36 H36       -10.8548    0.3123   64.7792 H       1  ZINC000538774026    0.0600
     37 H37       -10.6545    1.5397   61.4309 H       1  ZINC000538774026    0.1000
     38 H38        -8.8844    1.5335   61.6176 H       1  ZINC000538774026    0.1000
     39 H39        -8.7583   -2.7471   58.9348 H       1  ZINC000538774026    0.2100
     40 H40        -9.7452   -0.4543   56.3882 H       1  ZINC000538774026    0.4100
     41 H41       -10.8500   -1.6326   54.7028 H       1  ZINC000538774026    0.4000
     42 H42       -12.1182   -4.0952   55.7228 H       1  ZINC000538774026    0.1000
     43 H43       -14.1856   -3.5977   54.4473 H       1  ZINC000538774026    0.0800
     44 H44       -13.8896   -2.3603   55.6920 H       1  ZINC000538774026    0.0800
     45 H45       -14.5267   -1.3177   53.5344 H       1  ZINC000538774026    0.0700
     46 H46       -12.8587   -0.8883   53.9834 H       1  ZINC000538774026    0.0700
     47 H47       -13.6664   -3.1100   52.0526 H       1  ZINC000538774026    0.1100
     48 H48       -15.2097   -2.6472   48.5630 H       1  ZINC000538774026    0.0600
     49 H49       -15.6589   -1.1613   47.6919 H       1  ZINC000538774026    0.0700
     50 H50       -14.0370   -1.8626   47.4780 H       1  ZINC000538774026    0.0800
     51 H51       -15.0938   -0.0083   51.1861 H       1  ZINC000538774026    0.0700
     52 H52       -16.2761   -0.0786   49.8573 H       1  ZINC000538774026    0.0800
     53 H53       -15.8269   -1.5644   50.7284 H       1  ZINC000538774026    0.0700
     54 H54       -13.0079    0.3216   48.1205 H       1  ZINC000538774026    0.0800
     55 H55       -14.6298    1.0229   48.3344 H       1  ZINC000538774026    0.0700
     56 H56       -13.4476    1.0931   49.6632 H       1  ZINC000538774026    0.0600
     57 H57       -11.2291   -3.2601   51.6220 H       1  ZINC000538774026    0.0800
     58 H58       -10.9330   -2.0226   52.8667 H       1  ZINC000538774026    0.0600
     59 H59       -10.5919   -4.3027   53.7796 H       1  ZINC000538774026    0.0800
     60 H60       -12.2600   -4.7320   53.3305 H       1  ZINC000538774026    0.0900
     61 H61       -11.1250    2.0623   59.5534 H       1  ZINC000538774026    0.1300
@<TRIPOS>BOND
     1     1     2    1
     2     1    30    1
     3     1    31    1
     4     1    32    1
     5     2     3    1
     6     2     4    1
     7     2    33    1
     8     3    34    1
     9     3    35    1
    10     3    36    1
    11     4     5    1
    12     4    37    1
    13     4    38    1
    14     5    26    1
    15     5     6    1
    16     6     7    2
    17     7     8    1
    18     7    39    1
    19     8     9    1
    20     8    26    2
    21     9    10   am
    22     9    40    1
    23    10    11    2
    24    10    12   am
    25    12    13    1
    26    12    41    1
    27    13    25    1
    28    13    14    1
    29    13    42    1
    30    14    15    1
    31    14    43    1
    32    14    44    1
    33    15    16    1
    34    15    45    1
    35    15    46    1
    36    16    17    1
    37    16    24    1
    38    16    47    1
    39    17    18    2
    40    17    19    1
    41    19    20    1
    42    20    21    1
    43    20    22    1
    44    20    23    1
    45    21    48    1
    46    21    49    1
    47    21    50    1
    48    22    51    1
    49    22    52    1
    50    22    53    1
    51    23    54    1
    52    23    55    1
    53    23    56    1
    54    24    25    1
    55    24    57    1
    56    24    58    1
    57    25    59    1
    58    25    60    1
    59    26    27    1
    60    27    28    1
    61    27    29    1
    62    27    61    1
@<TRIPOS>SUBSTRUCTURE
     1 ZINC000538774026        1 TEMP              0 ****  ****    0 ROOT


##########                                Name:    ZINC000745364361
##########                DOCK_Rotatable_Bonds:                   8
##########                         Heavy_Atoms:                  29
##########                    Molecular_Weight:             398.434
##########                DOCK_Rotatable_Bonds:                   8
##########                       Formal_Charge:          0.00999923
##########                     HBond_Acceptors:                   7
##########                        HBond_Donors:                   1
##########                         Heavy_Atoms:                  29
##########                          Grid_Score:          -35.092144
##########                     Grid_vdw_energy:          -34.279415
##########                      Grid_es_energy:           -0.812731
##########           Internal_energy_repulsive:           15.029094

@<TRIPOS>MOLECULE
ZINC000745364361
 52 54 1 0 0
SMALL
USER_CHARGES


@<TRIPOS>ATOM
      1 C1        -13.8885   -5.1174   55.5560 C.3     1  ZINC000745364361   -0.1700
      2 C2        -13.2089   -4.1852   56.5611 C.3     1  ZINC000745364361    0.0700
      3 H3        -12.7547   -4.7769   57.3558 H       1  ZINC000745364361    0.1100
      4 O4        -14.1959   -3.2856   57.1311 O.3     1  ZINC000745364361   -0.3200
      5 C5        -13.8323   -2.5951   58.2232 C.2     1  ZINC000745364361    0.4700
      6 O6        -12.7828   -2.8384   58.7700 O.2     1  ZINC000745364361   -0.4900
      7 C7        -14.7331   -1.5163   58.7670 C.3     1  ZINC000745364361   -0.0400
      8 H8        -14.5186   -0.5747   58.2617 H       1  ZINC000745364361    0.1200
      9 C9        -16.1940   -1.9027   58.5269 C.3     1  ZINC000745364361   -0.1400
     10 C10       -14.4919   -1.3589   60.2463 C.ar    1  ZINC000745364361   -0.0500
     11 C11       -14.3264   -2.4769   61.0421 C.ar    1  ZINC000745364361   -0.1000
     12 C12       -14.1050   -2.3339   62.3994 C.ar    1  ZINC000745364361   -0.0900
     13 C13       -14.0488   -1.0731   62.9619 C.ar    1  ZINC000745364361   -0.1500
     14 C14       -14.2141    0.0477   62.1654 C.ar    1  ZINC000745364361    0.1000
     15 F15       -14.1595    1.2810   62.7143 F       1  ZINC000745364361   -0.1400
     16 C16       -14.4305   -0.0965   60.8057 C.ar    1  ZINC000745364361   -0.1400
     17 C17       -12.1430   -3.3825   55.8605 C.2     1  ZINC000745364361    0.5200
     18 O18       -11.0115   -3.3653   56.2971 O.2     1  ZINC000745364361   -0.5000
     19 N19       -12.4471   -2.6838   54.7489 N.am    1  ZINC000745364361   -0.6700
     20 C20       -11.4563   -1.9377   54.0977 C.ar    1  ZINC000745364361    0.1200
     21 C21       -10.9689   -0.7744   54.6787 C.ar    1  ZINC000745364361   -0.1100
     22 C22        -9.9926   -0.0391   54.0370 C.ar    1  ZINC000745364361   -0.1400
     23 C23        -9.4975   -0.4630   52.8107 C.ar    1  ZINC000745364361    0.1500
     24 N24        -8.5072    0.2833   52.1594 N.am    1  ZINC000745364361   -0.5600
     25 C25        -8.5205    1.7455   52.0337 C.3     1  ZINC000745364361    0.0900
     26 C26        -7.0759    2.1397   51.6543 C.3     1  ZINC000745364361   -0.1300
     27 C27        -6.5644    0.8479   50.9757 C.3     1  ZINC000745364361   -0.1500
     28 C28        -7.4195   -0.2472   51.5743 C.2     1  ZINC000745364361    0.5200
     29 O29        -7.1645   -1.4321   51.5266 O.2     1  ZINC000745364361   -0.5100
     30 C30        -9.9839   -1.6271   52.2305 C.ar    1  ZINC000745364361   -0.1400
     31 C31       -10.9576   -2.3644   52.8740 C.ar    1  ZINC000745364361   -0.0900
     32 H32       -14.6594   -5.6979   56.0626 H       1  ZINC000745364361    0.0800
     33 H33       -14.3427   -4.5256   54.7612 H       1  ZINC000745364361    0.0800
     34 H34       -13.1475   -5.7926   55.1282 H       1  ZINC000745364361    0.0800
     35 H35       -16.4086   -2.8443   59.0323 H       1  ZINC000745364361    0.0700
     36 H36       -16.8456   -1.1225   58.9203 H       1  ZINC000745364361    0.0800
     37 H37       -16.3685   -2.0166   57.4570 H       1  ZINC000745364361    0.0800
     38 H38       -14.3705   -3.4627   60.6034 H       1  ZINC000745364361    0.1300
     39 H39       -13.9761   -3.2082   63.0203 H       1  ZINC000745364361    0.1400
     40 H40       -13.8766   -0.9617   64.0222 H       1  ZINC000745364361    0.1400
     41 H41       -14.5591    0.7769   60.1836 H       1  ZINC000745364361    0.1400
     42 H42       -13.3519   -2.6974   54.3997 H       1  ZINC000745364361    0.4100
     43 H43       -11.3539   -0.4446   55.6324 H       1  ZINC000745364361    0.1300
     44 H44        -9.6140    0.8660   54.4884 H       1  ZINC000745364361    0.1600
     45 H45        -9.2130    2.0504   51.2492 H       1  ZINC000745364361    0.0800
     46 H46        -8.7994    2.2032   52.9828 H       1  ZINC000745364361    0.0900
     47 H47        -7.0706    2.9760   50.9552 H       1  ZINC000745364361    0.1000
     48 H48        -6.4889    2.3724   52.5428 H       1  ZINC000745364361    0.0900
     49 H49        -6.7069    0.9017   49.8965 H       1  ZINC000745364361    0.1100
     50 H50        -5.5140    0.6815   51.2149 H       1  ZINC000745364361    0.1100
     51 H51        -9.5988   -1.9570   51.2770 H       1  ZINC000745364361    0.1300
     52 H52       -11.3359   -3.2697   52.4226 H       1  ZINC000745364361    0.1400
@<TRIPOS>BOND
     1     1     2    1
     2     1    32    1
     3     1    33    1
     4     1    34    1
     5     2     3    1
     6     2     4    1
     7     2    17    1
     8     4     5    1
     9     5     6    2
    10     5     7    1
    11     7     8    1
    12     7     9    1
    13     7    10    1
    14     9    35    1
    15     9    36    1
    16     9    37    1
    17    10    16   ar
    18    10    11   ar
    19    11    12   ar
    20    11    38    1
    21    12    13   ar
    22    12    39    1
    23    13    14   ar
    24    13    40    1
    25    14    15    1
    26    14    16   ar
    27    16    41    1
    28    17    18    2
    29    17    19   am
    30    19    20    1
    31    19    42    1
    32    20    31   ar
    33    20    21   ar
    34    21    22   ar
    35    21    43    1
    36    22    23   ar
    37    22    44    1
    38    23    24    1
    39    23    30   ar
    40    24    28   am
    41    24    25    1
    42    25    26    1
    43    25    45    1
    44    25    46    1
    45    26    27    1
    46    26    47    1
    47    26    48    1
    48    27    28    1
    49    27    49    1
    50    27    50    1
    51    28    29    2
    52    30    31   ar
    53    30    51    1
    54    31    52    1
@<TRIPOS>SUBSTRUCTURE
     1 ZINC000745364361        1 TEMP              0 ****  ****    0 ROOT


##########                                Name:    ZINC000442864105
##########                DOCK_Rotatable_Bonds:                   7
##########                         Heavy_Atoms:                  30
##########                    Molecular_Weight:              414.39
##########                DOCK_Rotatable_Bonds:                   7
##########                       Formal_Charge:           0.0200001
##########                     HBond_Acceptors:                  10
##########                        HBond_Donors:                   2
##########                         Heavy_Atoms:                  30
##########                          Grid_Score:          -35.080402
##########                     Grid_vdw_energy:          -34.855816
##########                      Grid_es_energy:           -0.224586
##########           Internal_energy_repulsive:           20.214861

@<TRIPOS>MOLECULE
ZINC000442864105
 47 50 1 0 0
SMALL
USER_CHARGES


@<TRIPOS>ATOM
      1 C1         -7.8158    1.0661   65.6665 C.3     1  ZINC000442864105    0.0800
      2 N2         -9.1868    1.0141   65.1526 N.pl3   1  ZINC000442864105   -0.4900
      3 C3        -10.2768    1.5808   65.7589 C.2     1  ZINC000442864105    0.0300
      4 C4        -11.3783    1.3489   65.0287 C.2     1  ZINC000442864105   -0.1900
      5 C5        -10.9614    0.5701   63.8590 C.ar    1  ZINC000442864105   -0.1600
      6 C6        -11.6371    0.0374   62.7594 C.ar    1  ZINC000442864105   -0.0200
      7 C7        -10.9470   -0.6605   61.8099 C.ar    1  ZINC000442864105   -0.2100
      8 C8         -9.5705   -0.8454   61.9300 C.ar    1  ZINC000442864105    0.2400
      9 N9         -8.8786   -1.5622   60.9494 N.pl3   1  ZINC000442864105   -0.7400
     10 C10        -9.1978   -2.9720   60.7105 C.3     1  ZINC000442864105    0.1100
     11 C11        -9.8468   -3.1180   59.3583 C.2     1  ZINC000442864105    0.5100
     12 O12        -9.8688   -4.1995   58.8097 O.2     1  ZINC000442864105   -0.5100
     13 N13       -10.4029   -2.0467   58.7585 N.am    1  ZINC000442864105   -0.6600
     14 C14       -11.0058   -2.1823   57.5025 C.ar    1  ZINC000442864105    0.1600
     15 C15       -11.9665   -3.1609   57.2941 C.ar    1  ZINC000442864105   -0.0700
     16 C16       -12.5604   -3.2929   56.0531 C.ar    1  ZINC000442864105   -0.1600
     17 C17       -13.6041   -4.3566   55.8290 C.3     1  ZINC000442864105    0.5100
     18 F18       -13.7911   -4.5445   54.4554 F       1  ZINC000442864105   -0.1700
     19 F19       -13.1795   -5.5562   56.4103 F       1  ZINC000442864105   -0.1700
     20 F20       -14.8106   -3.9566   56.4135 F       1  ZINC000442864105   -0.1700
     21 C21       -12.2001   -2.4513   55.0166 C.ar    1  ZINC000442864105   -0.0600
     22 C22       -11.2433   -1.4739   55.2152 C.ar    1  ZINC000442864105   -0.1100
     23 C23       -10.6463   -1.3303   56.4586 C.ar    1  ZINC000442864105    0.1500
     24 N24        -9.6752   -0.3392   56.6623 N.pl3   1  ZINC000442864105   -0.3300
     25 C25        -9.3407    0.6506   55.8121 C.2     1  ZINC000442864105    0.2800
     26 N26        -8.3953    1.3625   56.3708 N.2     1  ZINC000442864105   -0.5300
     27 C27        -8.1011    0.8620   57.5702 C.2     1  ZINC000442864105    0.2300
     28 N28        -8.8621   -0.1772   57.7960 N.2     1  ZINC000442864105   -0.3400
     29 C29        -8.8834   -0.3242   63.0128 C.ar    1  ZINC000442864105   -0.2100
     30 C30        -9.5713    0.3932   63.9851 C.ar    1  ZINC000442864105    0.1500
     31 H31        -7.3151    1.9523   65.2766 H       1  ZINC000442864105    0.0700
     32 H32        -7.8373    1.1105   66.7552 H       1  ZINC000442864105    0.0800
     33 H33        -7.2750    0.1743   65.3497 H       1  ZINC000442864105    0.0800
     34 H34       -10.2530    2.1326   66.6870 H       1  ZINC000442864105    0.1700
     35 H35       -12.3821    1.6740   65.2594 H       1  ZINC000442864105    0.1400
     36 H36       -12.7036    0.1765   62.6602 H       1  ZINC000442864105    0.1200
     37 H37       -11.4712   -1.0722   60.9602 H       1  ZINC000442864105    0.1200
     38 H38        -8.1874   -1.1262   60.4270 H       1  ZINC000442864105    0.4100
     39 H39        -8.2817   -3.5618   60.7394 H       1  ZINC000442864105    0.1000
     40 H40        -9.8819   -3.3254   61.4819 H       1  ZINC000442864105    0.1000
     41 H41       -10.3854   -1.1818   59.1972 H       1  ZINC000442864105    0.4300
     42 H42       -12.2503   -3.8197   58.1014 H       1  ZINC000442864105    0.1700
     43 H43       -12.6675   -2.5585   54.0490 H       1  ZINC000442864105    0.1500
     44 H44       -10.9641   -0.8187   54.4034 H       1  ZINC000442864105    0.1500
     45 H45        -9.7761    0.8257   54.8394 H       1  ZINC000442864105    0.2300
     46 H46        -7.3574    1.2540   58.2482 H       1  ZINC000442864105    0.2300
     47 H47        -7.8170   -0.4709   63.1001 H       1  ZINC000442864105    0.1200
@<TRIPOS>BOND
     1     1     2    1
     2     1    31    1
     3     1    32    1
     4     1    33    1
     5     2    30    1
     6     2     3    1
     7     3     4    2
     8     3    34    1
     9     4     5    1
    10     4    35    1
    11     5    30   ar
    12     5     6   ar
    13     6     7   ar
    14     6    36    1
    15     7     8   ar
    16     7    37    1
    17     8     9    1
    18     8    29   ar
    19     9    10    1
    20     9    38    1
    21    10    11    1
    22    10    39    1
    23    10    40    1
    24    11    12    2
    25    11    13   am
    26    13    14    1
    27    13    41    1
    28    14    23   ar
    29    14    15   ar
    30    15    16   ar
    31    15    42    1
    32    16    17    1
    33    16    21   ar
    34    17    18    1
    35    17    19    1
    36    17    20    1
    37    21    22   ar
    38    21    43    1
    39    22    23   ar
    40    22    44    1
    41    23    24    1
    42    24    28    1
    43    24    25    1
    44    25    26    2
    45    25    45    1
    46    26    27    1
    47    27    28    2
    48    27    46    1
    49    29    30   ar
    50    29    47    1
@<TRIPOS>SUBSTRUCTURE
     1 ZINC000442864105        1 TEMP              0 ****  ****    0 ROOT


##########                                Name:    ZINC000503413572
##########                DOCK_Rotatable_Bonds:                   7
##########                         Heavy_Atoms:                  26
##########                    Molecular_Weight:             355.375
##########                DOCK_Rotatable_Bonds:                   7
##########                       Formal_Charge:        -1.71363e-07
##########                     HBond_Acceptors:                   9
##########                        HBond_Donors:                   1
##########                         Heavy_Atoms:                  26
##########                          Grid_Score:          -35.070583
##########                     Grid_vdw_energy:          -34.606857
##########                      Grid_es_energy:           -0.463727
##########           Internal_energy_repulsive:            8.142139

@<TRIPOS>MOLECULE
ZINC000503413572
 44 47 1 0 0
SMALL
USER_CHARGES


@<TRIPOS>ATOM
      1 C1        -11.3842    0.7593   60.5784 C.3     1  ZINC000503413572   -0.1200
      2 C2        -10.4538    0.3508   61.6913 C.ar    1  ZINC000503413572   -0.0200
      3 C3        -10.4543    1.0481   62.8831 C.ar    1  ZINC000503413572   -0.1400
      4 C4         -9.5996    0.6728   63.9064 C.ar    1  ZINC000503413572    0.1300
      5 F5         -9.6017    1.3560   65.0719 F       1  ZINC000503413572   -0.1300
      6 C6         -8.7435   -0.4021   63.7364 C.ar    1  ZINC000503413572   -0.1400
      7 C7         -8.7403   -1.1020   62.5457 C.ar    1  ZINC000503413572   -0.0700
      8 C8         -9.5997   -0.7305   61.5210 C.ar    1  ZINC000503413572    0.1000
      9 N9         -9.5982   -1.4405   60.3111 N.pl3   1  ZINC000503413572   -0.3100
     10 C10       -10.4332   -2.4441   59.9652 C.2     1  ZINC000503413572    0.1100
     11 C11       -10.0753   -2.8396   58.7073 C.2     1  ZINC000503413572   -0.1000
     12 C12       -10.7170   -3.9136   57.9258 C.2     1  ZINC000503413572    0.6100
     13 O13       -10.0398   -4.7967   57.4359 O.2     1  ZINC000503413572   -0.5300
     14 N14       -12.0539   -3.9160   57.7549 N.am    1  ZINC000503413572   -0.7200
     15 C15       -12.6914   -4.9836   56.9803 C.3     1  ZINC000503413572    0.1100
     16 C16       -14.1907   -5.0084   57.2839 C.3     1  ZINC000503413572    0.1000
     17 N17       -14.7786   -3.7093   56.9472 N.pl3   1  ZINC000503413572   -0.4700
     18 C18       -15.2239   -3.3064   55.7327 C.2     1  ZINC000503413572    0.1500
     19 N19       -15.6689   -2.0867   55.8674 N.2     1  ZINC000503413572   -0.2900
     20 N20       -15.5283   -1.7069   57.0879 N.2     1  ZINC000503413572   -0.2900
     21 C21       -14.9926   -2.6690   57.7886 C.2     1  ZINC000503413572    0.2100
     22 C22       -14.6636   -2.6269   59.2586 C.3     1  ZINC000503413572   -0.1000
     23 C23       -15.5043   -1.7053   60.1445 C.3     1  ZINC000503413572   -0.1500
     24 C24       -15.6861   -3.2221   60.2287 C.3     1  ZINC000503413572   -0.1600
     25 N25        -9.0397   -2.0846   58.3022 N.2     1  ZINC000503413572   -0.2000
     26 N26        -8.7336   -1.2410   59.2255 N.2     1  ZINC000503413572   -0.0400
     27 H27       -12.2938    0.1607   60.6271 H       1  ZINC000503413572    0.0900
     28 H28       -11.6373    1.8142   60.6852 H       1  ZINC000503413572    0.0800
     29 H29       -10.8945    0.5986   59.6180 H       1  ZINC000503413572    0.0700
     30 H30       -11.1210    1.8870   63.0172 H       1  ZINC000503413572    0.1500
     31 H31        -8.0774   -0.6932   64.5353 H       1  ZINC000503413572    0.1500
     32 H32        -8.0721   -1.9401   62.4133 H       1  ZINC000503413572    0.1500
     33 H33       -11.2301   -2.8552   60.5671 H       1  ZINC000503413572    0.2100
     34 H34       -12.5940   -3.2108   58.1448 H       1  ZINC000503413572    0.4100
     35 H35       -12.5390   -4.8013   55.9165 H       1  ZINC000503413572    0.0800
     36 H36       -12.2499   -5.9426   57.2514 H       1  ZINC000503413572    0.0800
     37 H37       -14.6687   -5.7881   56.6909 H       1  ZINC000503413572    0.1100
     38 H38       -14.3436   -5.2126   58.3436 H       1  ZINC000503413572    0.1100
     39 H39       -15.2121   -3.8865   54.8218 H       1  ZINC000503413572    0.2200
     40 H40       -13.6084   -2.7398   59.5076 H       1  ZINC000503413572    0.1200
     41 H41       -15.0022   -1.2117   60.9766 H       1  ZINC000503413572    0.1100
     42 H42       -16.2953   -1.1295   59.6641 H       1  ZINC000503413572    0.1100
     43 H43       -16.5967   -3.6442   59.8037 H       1  ZINC000503413572    0.1000
     44 H44       -15.3035   -3.7264   61.1161 H       1  ZINC000503413572    0.1100
@<TRIPOS>BOND
     1     1     2    1
     2     1    27    1
     3     1    28    1
     4     1    29    1
     5     2     8   ar
     6     2     3   ar
     7     3     4   ar
     8     3    30    1
     9     4     5    1
    10     4     6   ar
    11     6     7   ar
    12     6    31    1
    13     7     8   ar
    14     7    32    1
    15     8     9    1
    16     9    26    1
    17     9    10    1
    18    10    11    2
    19    10    33    1
    20    11    12    1
    21    11    25    1
    22    12    13    2
    23    12    14   am
    24    14    15    1
    25    14    34    1
    26    15    16    1
    27    15    35    1
    28    15    36    1
    29    16    17    1
    30    16    37    1
    31    16    38    1
    32    17    21    1
    33    17    18    1
    34    18    19    2
    35    18    39    1
    36    19    20    1
    37    20    21    2
    38    21    22    1
    39    22    24    1
    40    22    23    1
    41    22    40    1
    42    23    24    1
    43    23    41    1
    44    23    42    1
    45    24    43    1
    46    24    44    1
    47    25    26    2
@<TRIPOS>SUBSTRUCTURE
     1 ZINC000503413572        1 TEMP              0 ****  ****    0 ROOT


##########                                Name:    ZINC001141221454
##########                DOCK_Rotatable_Bonds:                   7
##########                         Heavy_Atoms:                  27
##########                    Molecular_Weight:             369.439
##########                DOCK_Rotatable_Bonds:                   7
##########                       Formal_Charge:          0.00999935
##########                     HBond_Acceptors:                   6
##########                        HBond_Donors:                   1
##########                         Heavy_Atoms:                  27
##########                          Grid_Score:          -35.011490
##########                     Grid_vdw_energy:          -32.091438
##########                      Grid_es_energy:           -2.920052
##########           Internal_energy_repulsive:           13.026608

@<TRIPOS>MOLECULE
ZINC001141221454
 51 54 1 0 0
SMALL
USER_CHARGES


@<TRIPOS>ATOM
      1 C1        -13.8711   -1.0825   49.9592 C.3     1  ZINC001141221454    0.0300
      2 O2        -14.5700   -1.5169   51.1275 O.3     1  ZINC001141221454   -0.3100
      3 C3        -13.8468   -2.1808   52.0681 C.ar    1  ZINC001141221454    0.0900
      4 C4        -12.4755   -2.3184   51.9204 C.ar    1  ZINC001141221454   -0.1800
      5 C5        -11.7421   -2.9933   52.8782 C.ar    1  ZINC001141221454   -0.0900
      6 C6        -12.3743   -3.5316   53.9833 C.ar    1  ZINC001141221454   -0.1200
      7 C7        -13.7424   -3.3971   54.1343 C.ar    1  ZINC001141221454   -0.0800
      8 C8        -14.4285   -3.9856   55.3401 C.3     1  ZINC001141221454    0.0900
      9 N9        -14.1031   -3.1850   56.5279 N.3     1  ZINC001141221454   -0.5100
     10 C10       -14.6489   -1.8081   56.4081 C.3     1  ZINC001141221454    0.0300
     11 C11       -14.6976   -1.3132   57.8771 C.3     1  ZINC001141221454   -0.0700
     12 C12       -15.0996   -2.5833   58.6492 C.3     1  ZINC001141221454   -0.1000
     13 C13       -16.3481   -2.6142   59.5211 C.3     1  ZINC001141221454   -0.1400
     14 C14       -14.9588   -2.6637   60.1637 C.3     1  ZINC001141221454   -0.1800
     15 H15       -14.6345   -3.6132   60.5894 H       1  ZINC001141221454    0.1300
     16 C16       -14.4814   -1.4303   60.8859 C.2     1  ZINC001141221454    0.5500
     17 O17       -15.1775   -0.4375   60.9159 O.2     1  ZINC001141221454   -0.5300
     18 N18       -13.2809   -1.4304   61.4985 N.am    1  ZINC001141221454   -0.7300
     19 C19       -12.8159   -0.2307   62.1991 C.3     1  ZINC001141221454    0.1700
     20 C20       -11.3219   -0.3037   62.3829 C.ar    1  ZINC001141221454   -0.1600
     21 C21       -10.7171    0.3139   63.4666 C.ar    1  ZINC001141221454   -0.0600
     22 C22        -9.3396    0.2200   63.5955 C.ar    1  ZINC001141221454   -0.1700
     23 C23        -8.6207   -0.4810   62.6463 C.ar    1  ZINC001141221454    0.1100
     24 N24        -9.2298   -1.0562   61.6277 N.ar    1  ZINC001141221454   -0.4800
     25 C25       -10.5380   -0.9921   61.4761 C.ar    1  ZINC001141221454    0.1200
     26 C26       -14.7229   -3.7618   57.7430 C.3     1  ZINC001141221454    0.0700
     27 C27       -14.4803   -2.7179   53.1821 C.ar    1  ZINC001141221454    0.0900
     28 F28       -15.8169   -2.5862   53.3293 F       1  ZINC001141221454   -0.1300
     29 H29       -14.5629   -0.5679   49.2923 H       1  ZINC001141221454    0.1000
     30 H30       -13.0699   -0.4017   50.2471 H       1  ZINC001141221454    0.0600
     31 H31       -13.4473   -1.9463   49.4471 H       1  ZINC001141221454    0.0600
     32 H32       -11.9802   -1.8987   51.0574 H       1  ZINC001141221454    0.1400
     33 H33       -10.6737   -3.1007   52.7627 H       1  ZINC001141221454    0.1300
     34 H34       -11.7988   -4.0584   54.7300 H       1  ZINC001141221454    0.1300
     35 H35       -15.5070   -3.9807   55.1830 H       1  ZINC001141221454    0.0600
     36 H36       -14.0875   -5.0102   55.4880 H       1  ZINC001141221454    0.0900
     37 H37       -13.9841   -1.1817   55.8133 H       1  ZINC001141221454    0.0800
     38 H38       -15.6493   -1.8276   55.9756 H       1  ZINC001141221454    0.0500
     39 H39       -13.7180   -0.9595   58.1984 H       1  ZINC001141221454    0.0900
     40 H40       -15.4498   -0.5335   57.9974 H       1  ZINC001141221454    0.0700
     41 H41       -16.9161   -1.6892   59.6203 H       1  ZINC001141221454    0.1000
     42 H42       -16.9374   -3.5312   59.5244 H       1  ZINC001141221454    0.1100
     43 H43       -12.7247   -2.2248   61.4755 H       1  ZINC001141221454    0.4000
     44 H44       -13.0671    0.6529   61.6126 H       1  ZINC001141221454    0.0800
     45 H45       -13.2993   -0.1691   63.1741 H       1  ZINC001141221454    0.0800
     46 H46       -11.3047    0.8556   64.1931 H       1  ZINC001141221454    0.1400
     47 H47        -8.8350    0.6892   64.4272 H       1  ZINC001141221454    0.1400
     48 H48        -7.5475   -0.5584   62.7393 H       1  ZINC001141221454    0.1600
     49 H49       -11.0015   -1.4757   60.6290 H       1  ZINC001141221454    0.1600
     50 H50       -15.6161   -4.3257   57.4740 H       1  ZINC001141221454    0.0500
     51 H51       -14.0110   -4.4112   58.2524 H       1  ZINC001141221454    0.0900
@<TRIPOS>BOND
     1     1     2    1
     2     1    29    1
     3     1    30    1
     4     1    31    1
     5     2     3    1
     6     3    27   ar
     7     3     4   ar
     8     4     5   ar
     9     4    32    1
    10     5     6   ar
    11     5    33    1
    12     6     7   ar
    13     6    34    1
    14     7     8    1
    15     7    27   ar
    16     8     9    1
    17     8    35    1
    18     8    36    1
    19     9    26    1
    20     9    10    1
    21    10    11    1
    22    10    37    1
    23    10    38    1
    24    11    12    1
    25    11    39    1
    26    11    40    1
    27    12    14    1
    28    12    13    1
    29    12    26    1
    30    13    14    1
    31    13    41    1
    32    13    42    1
    33    14    15    1
    34    14    16    1
    35    16    17    2
    36    16    18   am
    37    18    19    1
    38    18    43    1
    39    19    20    1
    40    19    44    1
    41    19    45    1
    42    20    25   ar
    43    20    21   ar
    44    21    22   ar
    45    21    46    1
    46    22    23   ar
    47    22    47    1
    48    23    24   ar
    49    23    48    1
    50    24    25   ar
    51    25    49    1
    52    26    50    1
    53    26    51    1
    54    27    28    1
@<TRIPOS>SUBSTRUCTURE
     1 ZINC001141221454        1 TEMP              0 ****  ****    0 ROOT


##########                                Name:    ZINC000892389374
##########                DOCK_Rotatable_Bonds:                   6
##########                         Heavy_Atoms:                  25
##########                    Molecular_Weight:             371.383
##########                DOCK_Rotatable_Bonds:                   6
##########                       Formal_Charge:          -0.0199998
##########                     HBond_Acceptors:                   9
##########                        HBond_Donors:                   1
##########                         Heavy_Atoms:                  25
##########                          Grid_Score:          -35.010403
##########                     Grid_vdw_energy:          -34.636433
##########                      Grid_es_energy:           -0.373969
##########           Internal_energy_repulsive:            8.203523

@<TRIPOS>MOLECULE
ZINC000892389374
 41 43 1 0 0
SMALL
USER_CHARGES


@<TRIPOS>ATOM
      1 C1        -13.7579   -3.1628   53.4526 C.3     1  ZINC000892389374   -0.1000
      2 C2        -12.9507   -3.2238   54.7237 C.ar    1  ZINC000892389374   -0.1800
      3 C3        -13.2943   -4.1203   55.7169 C.ar    1  ZINC000892389374   -0.0400
      4 C4        -12.5564   -4.1796   56.8837 C.ar    1  ZINC000892389374   -0.2100
      5 C5        -11.4665   -3.3371   57.0617 C.ar    1  ZINC000892389374    0.2200
      6 N6        -10.7199   -3.3980   58.2438 N.am    1  ZINC000892389374   -0.5700
      7 C7        -10.7382   -2.3952   59.3198 C.3     1  ZINC000892389374    0.0600
      8 C8         -9.7480   -2.9543   60.3596 C.3     1  ZINC000892389374    0.0400
      9 O9         -9.2804   -4.2005   59.7669 O.3     1  ZINC000892389374   -0.3200
     10 C10        -9.8760   -4.3823   58.5827 C.2     1  ZINC000892389374    0.6400
     11 O11        -9.6646   -5.3474   57.8753 O.2     1  ZINC000892389374   -0.5000
     12 C12       -11.1184   -2.4354   56.0662 C.ar    1  ZINC000892389374   -0.2300
     13 C13       -11.8578   -2.3820   54.8932 C.ar    1  ZINC000892389374    0.2400
     14 N14       -11.5109   -1.4759   53.8887 N.pl3   1  ZINC000892389374   -0.7400
     15 C15       -10.7604   -1.9333   52.7166 C.3     1  ZINC000892389374    0.2000
     16 C16        -9.6177   -0.9874   52.4512 C.2     1  ZINC000892389374   -0.2400
     17 C17        -8.4046   -1.3258   52.0039 C.2     1  ZINC000892389374    0.0600
     18 N18        -7.5760   -0.3125   51.8517 N.2     1  ZINC000892389374   -0.4500
     19 C19        -8.0225    0.8619   52.1457 C.2     1  ZINC000892389374    0.0200
     20 C20        -7.2288    2.1383   52.0377 C.3     1  ZINC000892389374   -0.0900
     21 C21        -6.1161    1.9610   51.0027 C.3     1  ZINC000892389374    0.4600
     22 F22        -6.6760    1.5943   49.7742 F       1  ZINC000892389374   -0.1800
     23 F23        -5.4188    3.1649   50.8566 F       1  ZINC000892389374   -0.1800
     24 F24        -5.2360    0.9614   51.4309 F       1  ZINC000892389374   -0.1700
     25 S25        -9.6473    0.7608   52.6684 S.3     1  ZINC000892389374    0.1900
     26 H26       -13.3407   -3.8574   52.7235 H       1  ZINC000892389374    0.0700
     27 H27       -14.7914   -3.4364   53.6649 H       1  ZINC000892389374    0.0700
     28 H28       -13.7255   -2.1504   53.0498 H       1  ZINC000892389374    0.0600
     29 H29       -14.1417   -4.7759   55.5813 H       1  ZINC000892389374    0.1300
     30 H30       -12.8277   -4.8816   57.6583 H       1  ZINC000892389374    0.1200
     31 H31       -10.3980   -1.4287   58.9482 H       1  ZINC000892389374    0.1000
     32 H32       -11.7369   -2.3118   59.7483 H       1  ZINC000892389374    0.1000
     33 H33        -8.9166   -2.2647   60.5049 H       1  ZINC000892389374    0.1100
     34 H34       -10.2551   -3.1476   61.3049 H       1  ZINC000892389374    0.1100
     35 H35       -10.2715   -1.7791   56.2025 H       1  ZINC000892389374    0.1600
     36 H36       -11.7669   -0.5435   53.9669 H       1  ZINC000892389374    0.4000
     37 H37       -10.3685   -2.9331   52.9037 H       1  ZINC000892389374    0.0900
     38 H38       -11.4204   -1.9582   51.8495 H       1  ZINC000892389374    0.0800
     39 H39        -8.1263   -2.3461   51.7851 H       1  ZINC000892389374    0.1800
     40 H40        -7.8869    2.9503   51.7282 H       1  ZINC000892389374    0.1300
     41 H41        -6.7894    2.3762   53.0065 H       1  ZINC000892389374    0.1400
@<TRIPOS>BOND
     1     1     2    1
     2     1    26    1
     3     1    27    1
     4     1    28    1
     5     2    13   ar
     6     2     3   ar
     7     3     4   ar
     8     3    29    1
     9     4     5   ar
    10     4    30    1
    11     5     6    1
    12     5    12   ar
    13     6    10   am
    14     6     7    1
    15     7     8    1
    16     7    31    1
    17     7    32    1
    18     8     9    1
    19     8    33    1
    20     8    34    1
    21     9    10    1
    22    10    11    2
    23    12    13   ar
    24    12    35    1
    25    13    14    1
    26    14    15    1
    27    14    36    1
    28    15    16    1
    29    15    37    1
    30    15    38    1
    31    16    25    1
    32    16    17    2
    33    17    18    1
    34    17    39    1
    35    18    19    2
    36    19    20    1
    37    19    25    1
    38    20    21    1
    39    20    40    1
    40    20    41    1
    41    21    22    1
    42    21    23    1
    43    21    24    1
@<TRIPOS>SUBSTRUCTURE
     1 ZINC000892389374        1 TEMP              0 ****  ****    0 ROOT


##########                                Name:    ZINC000590699876
##########                DOCK_Rotatable_Bonds:                   9
##########                         Heavy_Atoms:                  30
##########                    Molecular_Weight:              421.54
##########                DOCK_Rotatable_Bonds:                   9
##########                       Formal_Charge:          -0.0300004
##########                     HBond_Acceptors:                   9
##########                        HBond_Donors:                   1
##########                         Heavy_Atoms:                  30
##########                          Grid_Score:          -35.003227
##########                     Grid_vdw_energy:          -33.560158
##########                      Grid_es_energy:           -1.443071
##########           Internal_energy_repulsive:          101.955162

@<TRIPOS>MOLECULE
ZINC000590699876
 65 67 1 0 0
SMALL
USER_CHARGES


@<TRIPOS>ATOM
      1 C1        -16.7538   -5.1458   45.1608 C.3     1  ZINC000590699876   -0.1700
      2 C2        -16.9254   -3.9893   46.1116 C.2     1  ZINC000590699876    0.5100
      3 O3        -17.6895   -4.0829   47.0486 O.2     1  ZINC000590699876   -0.5500
      4 N4        -16.2295   -2.8510   45.9207 N.am    1  ZINC000590699876   -0.7200
      5 C5        -16.3949   -1.7273   46.8460 C.3     1  ZINC000590699876    0.1100
      6 C6        -15.3897   -1.8439   47.9627 C.2     1  ZINC000590699876    0.5300
      7 O7        -14.9812   -2.9350   48.2993 O.2     1  ZINC000590699876   -0.5200
      8 N8        -14.9449   -0.7356   48.5874 N.am    1  ZINC000590699876   -0.6000
      9 C9        -15.3558    0.6468   48.2812 C.3     1  ZINC000590699876    0.1000
     10 C10       -15.0950    1.4367   49.5879 C.3     1  ZINC000590699876   -0.1300
     11 C11       -13.7896    0.7716   50.0987 C.3     1  ZINC000590699876   -0.1300
     12 C12       -13.9744   -0.7054   49.6913 C.3     1  ZINC000590699876    0.1200
     13 H13       -13.0238   -1.1185   49.3539 H       1  ZINC000590699876    0.1000
     14 C14       -14.4910   -1.4995   50.8632 C.2     1  ZINC000590699876    0.5100
     15 O15       -15.6740   -1.7526   50.9500 O.2     1  ZINC000590699876   -0.5200
     16 N16       -13.6386   -1.9286   51.8148 N.am    1  ZINC000590699876   -0.6100
     17 C17       -12.2015   -1.6261   51.7331 C.3     1  ZINC000590699876    0.1000
     18 C18       -11.7551   -1.0194   53.0676 C.3     1  ZINC000590699876    0.0400
     19 N19       -12.1392   -1.9190   54.1637 N.3     1  ZINC000590699876   -0.5200
     20 C20       -11.5799   -1.4598   55.4421 C.3     1  ZINC000590699876    0.0400
     21 C21       -11.3974   -2.6386   56.3628 C.2     1  ZINC000590699876    0.5200
     22 O22       -11.6132   -3.7620   55.9599 O.2     1  ZINC000590699876   -0.5100
     23 N23       -10.9943   -2.4446   57.6342 N.am    1  ZINC000590699876   -0.6100
     24 C24       -10.7287   -1.0898   58.1369 C.3     1  ZINC000590699876    0.1100
     25 C25        -9.3194   -1.0536   58.7361 C.3     1  ZINC000590699876   -0.1400
     26 C26        -9.1906   -2.1527   59.7933 C.3     1  ZINC000590699876   -0.1200
     27 C27        -9.4022   -3.5197   59.1388 C.3     1  ZINC000590699876   -0.1300
     28 C28       -10.8179   -3.5834   58.5457 C.3     1  ZINC000590699876    0.1400
     29 H29       -11.5532   -3.5328   59.3488 H       1  ZINC000590699876    0.0700
     30 C30       -10.9919   -4.8923   57.7727 C.3     1  ZINC000590699876   -0.1400
     31 C31       -13.5986   -2.0623   54.2487 C.3     1  ZINC000590699876    0.0400
     32 C32       -14.1216   -2.7065   52.9658 C.3     1  ZINC000590699876    0.1200
     33 H33       -17.3926   -5.9715   45.4740 H       1  ZINC000590699876    0.1000
     34 H34       -17.0316   -4.8330   44.1543 H       1  ZINC000590699876    0.0900
     35 H35       -15.7129   -5.4694   45.1663 H       1  ZINC000590699876    0.0900
     36 H36       -15.6191   -2.7757   45.1706 H       1  ZINC000590699876    0.4100
     37 H37       -16.2373   -0.7904   46.3116 H       1  ZINC000590699876    0.1000
     38 H38       -17.4027   -1.7438   47.2610 H       1  ZINC000590699876    0.1000
     39 H39       -14.7532    1.0502   47.4673 H       1  ZINC000590699876    0.0800
     40 H40       -16.4142    0.6795   48.0229 H       1  ZINC000590699876    0.0800
     41 H41       -14.9386    2.4952   49.3801 H       1  ZINC000590699876    0.0900
     42 H42       -15.9093    1.2959   50.2988 H       1  ZINC000590699876    0.0800
     43 H43       -12.9182    1.2048   49.6076 H       1  ZINC000590699876    0.1000
     44 H44       -13.7084    0.8631   51.1818 H       1  ZINC000590699876    0.0900
     45 H45       -11.6444   -2.5435   51.5433 H       1  ZINC000590699876    0.0800
     46 H46       -12.0227   -0.9128   50.9285 H       1  ZINC000590699876    0.0900
     47 H47       -10.6727   -0.8909   53.0648 H       1  ZINC000590699876    0.0900
     48 H48       -12.2363   -0.0512   53.2061 H       1  ZINC000590699876    0.0400
     49 H49       -10.6154   -0.9832   55.2664 H       1  ZINC000590699876    0.1000
     50 H50       -12.2613   -0.7429   55.9001 H       1  ZINC000590699876    0.0600
     51 H51       -10.7951   -0.3759   57.3158 H       1  ZINC000590699876    0.0800
     52 H52       -11.4591   -0.8353   58.9049 H       1  ZINC000590699876    0.0700
     53 H53        -8.5846   -1.2189   57.9482 H       1  ZINC000590699876    0.0700
     54 H54        -9.1454   -0.0819   59.1985 H       1  ZINC000590699876    0.0800
     55 H55        -8.1966   -2.1134   60.2388 H       1  ZINC000590699876    0.0700
     56 H56        -9.9418   -2.0009   60.5683 H       1  ZINC000590699876    0.0600
     57 H57        -8.6667   -3.6618   58.3470 H       1  ZINC000590699876    0.0700
     58 H58        -9.2873   -4.3033   59.8877 H       1  ZINC000590699876    0.0700
     59 H59       -10.7841   -5.7344   58.4329 H       1  ZINC000590699876    0.0400
     60 H60       -12.0152   -4.9635   57.4042 H       1  ZINC000590699876    0.0700
     61 H61       -10.3002   -4.9116   56.9305 H       1  ZINC000590699876    0.0700
     62 H62       -13.8533   -2.6903   55.1026 H       1  ZINC000590699876    0.1100
     63 H63       -14.0542   -1.0796   54.3708 H       1  ZINC000590699876    0.0300
     64 H64       -15.2114   -2.7102   52.9759 H       1  ZINC000590699876    0.0900
     65 H65       -13.7498   -3.7284   52.8914 H       1  ZINC000590699876    0.0800
@<TRIPOS>BOND
     1     1     2    1
     2     1    33    1
     3     1    34    1
     4     1    35    1
     5     2     3    2
     6     2     4   am
     7     4     5    1
     8     4    36    1
     9     5     6    1
    10     5    37    1
    11     5    38    1
    12     6     7    2
    13     6     8   am
    14     8    12    1
    15     8     9    1
    16     9    10    1
    17     9    39    1
    18     9    40    1
    19    10    11    1
    20    10    41    1
    21    10    42    1
    22    11    12    1
    23    11    43    1
    24    11    44    1
    25    12    13    1
    26    12    14    1
    27    14    15    2
    28    14    16   am
    29    16    32    1
    30    16    17    1
    31    17    18    1
    32    17    45    1
    33    17    46    1
    34    18    19    1
    35    18    47    1
    36    18    48    1
    37    19    20    1
    38    19    31    1
    39    20    21    1
    40    20    49    1
    41    20    50    1
    42    21    22    2
    43    21    23   am
    44    23    28    1
    45    23    24    1
    46    24    25    1
    47    24    51    1
    48    24    52    1
    49    25    26    1
    50    25    53    1
    51    25    54    1
    52    26    27    1
    53    26    55    1
    54    26    56    1
    55    27    28    1
    56    27    57    1
    57    27    58    1
    58    28    29    1
    59    28    30    1
    60    30    59    1
    61    30    60    1
    62    30    61    1
    63    31    32    1
    64    31    62    1
    65    31    63    1
    66    32    64    1
    67    32    65    1
@<TRIPOS>SUBSTRUCTURE
     1 ZINC000590699876        1 TEMP              0 ****  ****    0 ROOT


##########                                Name:    ZINC001015666108
##########                DOCK_Rotatable_Bonds:                   7
##########                         Heavy_Atoms:                  25
##########                    Molecular_Weight:             346.429
##########                DOCK_Rotatable_Bonds:                   7
##########                       Formal_Charge:          -0.0199997
##########                     HBond_Acceptors:                   7
##########                        HBond_Donors:                   1
##########                         Heavy_Atoms:                  25
##########                          Grid_Score:          -34.976051
##########                     Grid_vdw_energy:          -34.432198
##########                      Grid_es_energy:           -0.543854
##########           Internal_energy_repulsive:           13.749215

@<TRIPOS>MOLECULE
ZINC001015666108
 51 53 1 0 0
SMALL
USER_CHARGES


@<TRIPOS>ATOM
      1 C1        -14.6531    1.2828   47.8393 C.3     1  ZINC001015666108   -0.1400
      2 C2        -13.8609    0.3828   48.7899 C.3     1  ZINC001015666108   -0.0700
      3 C3        -13.8487    0.9944   50.1671 C.2     1  ZINC001015666108   -0.0700
      4 C4        -13.5554    0.3579   51.3390 C.2     1  ZINC001015666108   -0.0900
      5 C5        -13.1934   -1.0558   51.4846 C.2     1  ZINC001015666108    0.6100
      6 O6        -13.1213   -1.7698   50.5016 O.2     1  ZINC001015666108   -0.5100
      7 N7        -12.9406   -1.5643   52.7068 N.am    1  ZINC001015666108   -0.7200
      8 C8        -12.5808   -2.9769   52.8525 C.3     1  ZINC001015666108    0.1400
      9 H9        -12.8039   -3.5202   51.9342 H       1  ZINC001015666108    0.1100
     10 C10       -11.0824   -3.1151   53.2070 C.3     1  ZINC001015666108   -0.1300
     11 C11       -11.1035   -3.2641   54.7491 C.3     1  ZINC001015666108    0.0300
     12 N12       -12.3140   -4.0891   54.9942 N.3     1  ZINC001015666108   -0.5100
     13 C13       -12.7768   -3.9458   56.3810 C.3     1  ZINC001015666108    0.1700
     14 H14       -13.2870   -2.9895   56.4967 H       1  ZINC001015666108    0.0900
     15 C15       -13.7435   -5.0833   56.7163 C.3     1  ZINC001015666108   -0.1500
     16 C16       -11.5942   -4.0003   57.3135 C.2     1  ZINC001015666108    0.1900
     17 N17       -11.0759   -2.9951   57.9770 N.2     1  ZINC001015666108   -0.4800
     18 C18       -10.0469   -3.5121   58.6720 C.2     1  ZINC001015666108    0.1800
     19 C19        -9.1261   -2.7576   59.5959 C.3     1  ZINC001015666108    0.0000
     20 C20        -9.0005   -1.3091   59.1199 C.3     1  ZINC001015666108   -0.1500
     21 C21        -9.6969   -2.7804   61.0152 C.3     1  ZINC001015666108   -0.1500
     22 N22        -9.9931   -4.7817   58.4007 N.2     1  ZINC001015666108   -0.3800
     23 O23       -10.8770   -5.0836   57.6266 O.3     1  ZINC001015666108    0.1000
     24 C24       -13.3366   -3.6013   54.0400 C.3     1  ZINC001015666108    0.0300
     25 O25       -13.6569    1.2574   52.3394 O.3     1  ZINC001015666108   -0.1700
     26 C26       -14.0067    2.4471   51.8337 C.2     1  ZINC001015666108    0.0000
     27 C27       -14.1306    2.3302   50.4932 C.2     1  ZINC001015666108   -0.2200
     28 H28       -14.6619    0.8404   46.8431 H       1  ZINC001015666108    0.0600
     29 H29       -15.6761    1.3827   48.2016 H       1  ZINC001015666108    0.0600
     30 H30       -14.1853    2.2664   47.7959 H       1  ZINC001015666108    0.0500
     31 H31       -14.3287   -0.6008   48.8333 H       1  ZINC001015666108    0.0900
     32 H32       -12.8378    0.2830   48.4275 H       1  ZINC001015666108    0.0700
     33 H33       -12.9969   -0.9949   53.4902 H       1  ZINC001015666108    0.4000
     34 H34       -10.6556   -4.0026   52.7396 H       1  ZINC001015666108    0.0900
     35 H35       -10.5325   -2.2210   52.9134 H       1  ZINC001015666108    0.0800
     36 H36       -10.2091   -3.7803   55.0979 H       1  ZINC001015666108    0.0800
     37 H37       -11.1983   -2.2899   55.2284 H       1  ZINC001015666108    0.0500
     38 H38       -13.2334   -6.0396   56.6005 H       1  ZINC001015666108    0.0800
     39 H39       -14.0870   -4.9769   57.7452 H       1  ZINC001015666108    0.0700
     40 H40       -14.5989   -5.0439   56.0419 H       1  ZINC001015666108    0.0800
     41 H41        -8.1427   -3.2278   59.5922 H       1  ZINC001015666108    0.1000
     42 H42        -9.9839   -0.8389   59.1234 H       1  ZINC001015666108    0.0600
     43 H43        -8.3345   -0.7634   59.7881 H       1  ZINC001015666108    0.0700
     44 H44        -8.5939   -1.2928   58.1087 H       1  ZINC001015666108    0.0600
     45 H45       -10.6803   -2.3103   61.0189 H       1  ZINC001015666108    0.0600
     46 H46        -9.7863   -3.8124   61.3544 H       1  ZINC001015666108    0.0600
     47 H47        -9.0308   -2.2347   61.6836 H       1  ZINC001015666108    0.0700
     48 H48       -13.9622   -2.8482   54.5191 H       1  ZINC001015666108    0.0600
     49 H49       -13.9505   -4.4337   53.6960 H       1  ZINC001015666108    0.1000
     50 H50       -14.1603    3.3520   52.4030 H       1  ZINC001015666108    0.2100
     51 H51       -14.4021    3.1155   49.8031 H       1  ZINC001015666108    0.1600
@<TRIPOS>BOND
     1     1     2    1
     2     1    28    1
     3     1    29    1
     4     1    30    1
     5     2     3    1
     6     2    31    1
     7     2    32    1
     8     3    27    1
     9     3     4    2
    10     4     5    1
    11     4    25    1
    12     5     6    2
    13     5     7   am
    14     7     8    1
    15     7    33    1
    16     8     9    1
    17     8    24    1
    18     8    10    1
    19    10    11    1
    20    10    34    1
    21    10    35    1
    22    11    12    1
    23    11    36    1
    24    11    37    1
    25    12    13    1
    26    12    24    1
    27    13    14    1
    28    13    15    1
    29    13    16    1
    30    15    38    1
    31    15    39    1
    32    15    40    1
    33    16    23    1
    34    16    17    2
    35    17    18    1
    36    18    19    1
    37    18    22    2
    38    19    20    1
    39    19    21    1
    40    19    41    1
    41    20    42    1
    42    20    43    1
    43    20    44    1
    44    21    45    1
    45    21    46    1
    46    21    47    1
    47    22    23    1
    48    24    48    1
    49    24    49    1
    50    25    26    1
    51    26    27    2
    52    26    50    1
    53    27    51    1
@<TRIPOS>SUBSTRUCTURE
     1 ZINC001015666108        1 TEMP              0 ****  ****    0 ROOT


##########                                Name:    ZINC000867639366
##########                DOCK_Rotatable_Bonds:                   6
##########                         Heavy_Atoms:                  25
##########                    Molecular_Weight:             388.509
##########                DOCK_Rotatable_Bonds:                   6
##########                       Formal_Charge:          0.00999961
##########                     HBond_Acceptors:                   9
##########                        HBond_Donors:                   1
##########                         Heavy_Atoms:                  25
##########                          Grid_Score:          -34.973633
##########                     Grid_vdw_energy:          -32.389107
##########                      Grid_es_energy:           -2.584524
##########           Internal_energy_repulsive:           38.936584

@<TRIPOS>MOLECULE
ZINC000867639366
 49 51 1 0 0
SMALL
USER_CHARGES


@<TRIPOS>ATOM
      1 C1        -11.6922   -1.7847   55.1281 C.3     1  ZINC000867639366    0.0300
      2 O2        -11.3840   -1.5368   56.5013 O.3     1  ZINC000867639366   -0.3800
      3 C3        -10.8253   -2.6611   57.1838 C.3     1  ZINC000867639366    0.0800
      4 H4        -10.3336   -3.3158   56.4643 H       1  ZINC000867639366    0.0800
      5 C5        -11.9392   -3.4310   57.8969 C.3     1  ZINC000867639366   -0.1400
      6 C6        -12.6522   -2.5032   58.8832 C.3     1  ZINC000867639366   -0.1200
      7 C7        -11.6509   -2.0164   59.9354 C.3     1  ZINC000867639366    0.1500
      8 H8        -11.3091   -2.8614   60.5330 H       1  ZINC000867639366    0.0800
      9 C9        -12.3222   -0.9841   60.8434 C.3     1  ZINC000867639366   -0.1900
     10 N10       -10.5054   -1.4027   59.2497 N.am    1  ZINC000867639366   -0.9800
     11 S11       -10.0150    0.1315   59.6345 S.o2    1  ZINC000867639366    2.6900
     12 O12        -8.8120    0.3609   58.9136 O.2     1  ZINC000867639366   -0.9500
     13 O13       -11.1623    0.9612   59.5159 O.2     1  ZINC000867639366   -0.9400
     14 C14        -9.5786    0.1268   61.3416 C.ar    1  ZINC000867639366   -0.6300
     15 C15        -9.8460    1.2331   62.1263 C.ar    1  ZINC000867639366   -0.0500
     16 C16        -9.5036    1.2295   63.4657 C.ar    1  ZINC000867639366   -0.0400
     17 C17        -8.8945    0.1195   64.0204 C.ar    1  ZINC000867639366   -0.6300
     18 S18        -8.4576    0.1151   65.7274 S.o2    1  ZINC000867639366    2.7000
     19 O19        -9.2753    1.0942   66.3534 O.2     1  ZINC000867639366   -0.9400
     20 O20        -8.4293   -1.2472   66.1307 O.2     1  ZINC000867639366   -0.9500
     21 N21        -6.9003    0.6675   65.8362 N.am    1  ZINC000867639366   -1.0800
     22 C22        -6.5631    2.0083   65.3518 C.3     1  ZINC000867639366    0.0800
     23 C23        -5.4853    2.7838   66.1119 C.3     1  ZINC000867639366   -0.1800
     24 C24        -5.1802    2.2071   64.7280 C.3     1  ZINC000867639366   -0.1900
     25 C25        -8.6285   -0.9872   63.2360 C.ar    1  ZINC000867639366   -0.0400
     26 C26        -8.9742   -0.9851   61.8976 C.ar    1  ZINC000867639366   -0.0400
     27 C27        -9.8026   -2.1762   58.2161 C.3     1  ZINC000867639366    0.1200
     28 H28       -10.7827   -2.0643   54.5964 H       1  ZINC000867639366    0.0400
     29 H29       -12.4173   -2.5956   55.0591 H       1  ZINC000867639366    0.0400
     30 H30       -12.1117   -0.8833   54.6814 H       1  ZINC000867639366    0.0900
     31 H31       -12.6550   -3.7984   57.1615 H       1  ZINC000867639366    0.0700
     32 H32       -11.5092   -4.2742   58.4375 H       1  ZINC000867639366    0.0700
     33 H33       -13.0612   -1.6471   58.3467 H       1  ZINC000867639366    0.0800
     34 H34       -13.4605   -3.0457   59.3737 H       1  ZINC000867639366    0.0800
     35 H35       -13.0881   -1.4731   61.4454 H       1  ZINC000867639366    0.0700
     36 H36       -11.5753   -0.5368   61.4992 H       1  ZINC000867639366    0.0600
     37 H37       -12.7815   -0.2069   60.2326 H       1  ZINC000867639366    0.1000
     38 H38       -10.3218    2.1004   61.6929 H       1  ZINC000867639366    0.1600
     39 H39        -9.7118    2.0941   64.0786 H       1  ZINC000867639366    0.1500
     40 H40        -6.2113    0.1032   66.2207 H       1  ZINC000867639366    0.4200
     41 H41        -7.3916    2.5783   64.9312 H       1  ZINC000867639366    0.1400
     42 H42        -5.6046    3.8643   66.1918 H       1  ZINC000867639366    0.1100
     43 H43        -5.0271    2.2963   66.9724 H       1  ZINC000867639366    0.1000
     44 H44        -4.5213    1.3402   64.6781 H       1  ZINC000867639366    0.1000
     45 H45        -5.0989    2.9081   63.8974 H       1  ZINC000867639366    0.1000
     46 H46        -8.1529   -1.8546   63.6695 H       1  ZINC000867639366    0.1500
     47 H47        -8.7664   -1.8498   61.2848 H       1  ZINC000867639366    0.1500
     48 H48        -9.3100   -3.0342   58.6735 H       1  ZINC000867639366    0.0900
     49 H49        -9.0611   -1.5441   57.7276 H       1  ZINC000867639366    0.1000
@<TRIPOS>BOND
     1     1     2    1
     2     1    28    1
     3     1    29    1
     4     1    30    1
     5     2     3    1
     6     3     4    1
     7     3    27    1
     8     3     5    1
     9     5     6    1
    10     5    31    1
    11     5    32    1
    12     6     7    1
    13     6    33    1
    14     6    34    1
    15     7     8    1
    16     7     9    1
    17     7    10    1
    18     9    35    1
    19     9    36    1
    20     9    37    1
    21    10    11   am
    22    10    27    1
    23    11    12    2
    24    11    13    2
    25    11    14    1
    26    14    26   ar
    27    14    15   ar
    28    15    16   ar
    29    15    38    1
    30    16    17   ar
    31    16    39    1
    32    17    18    1
    33    17    25   ar
    34    18    19    2
    35    18    20    2
    36    18    21   am
    37    21    22    1
    38    21    40    1
    39    22    24    1
    40    22    23    1
    41    22    41    1
    42    23    24    1
    43    23    42    1
    44    23    43    1
    45    24    44    1
    46    24    45    1
    47    25    26   ar
    48    25    46    1
    49    26    47    1
    50    27    48    1
    51    27    49    1
@<TRIPOS>SUBSTRUCTURE
     1 ZINC000867639366        1 TEMP              0 ****  ****    0 ROOT


##########                                Name:    ZINC000271662144
##########                DOCK_Rotatable_Bonds:                   8
##########                         Heavy_Atoms:                  26
##########                    Molecular_Weight:             390.402
##########                DOCK_Rotatable_Bonds:                   8
##########                       Formal_Charge:          0.00999944
##########                     HBond_Acceptors:                   9
##########                        HBond_Donors:                   3
##########                         Heavy_Atoms:                  26
##########                          Grid_Score:          -34.933517
##########                     Grid_vdw_energy:          -31.897165
##########                      Grid_es_energy:           -3.036354
##########           Internal_energy_repulsive:           12.579653

@<TRIPOS>MOLECULE
ZINC000271662144
 44 45 1 0 0
SMALL
USER_CHARGES


@<TRIPOS>ATOM
      1 C1        -10.5108    1.7165   61.1013 C.3     1  ZINC000271662144   -0.1400
      2 C2        -10.3192    0.4855   61.9894 C.3     1  ZINC000271662144    0.1200
      3 H3         -9.3591    0.0212   61.7646 H       1  ZINC000271662144    0.0600
      4 N4        -11.4000   -0.4759   61.7334 N.3     1  ZINC000271662144   -0.6700
      5 C5        -11.1322   -1.2579   60.5189 C.3     1  ZINC000271662144    0.1300
      6 H6        -10.6402   -0.6248   59.7804 H       1  ZINC000271662144    0.1100
      7 C7        -10.2243   -2.4401   60.8633 C.3     1  ZINC000271662144   -0.2000
      8 C8         -9.3722   -2.8007   59.6448 C.3     1  ZINC000271662144    0.4600
      9 F9        -10.2079   -3.1333   58.5733 F       1  ZINC000271662144   -0.1800
     10 F10        -8.5754   -1.7061   59.2925 F       1  ZINC000271662144   -0.1800
     11 F11        -8.5542   -3.8926   59.9545 F       1  ZINC000271662144   -0.1700
     12 C12       -12.4322   -1.7704   59.9548 C.ar    1  ZINC000271662144   -0.0900
     13 C13       -13.3694   -2.3461   60.7923 C.ar    1  ZINC000271662144   -0.0600
     14 C14       -14.5619   -2.8165   60.2762 C.ar    1  ZINC000271662144   -0.1600
     15 C15       -14.8180   -2.7107   58.9195 C.ar    1  ZINC000271662144    0.1000
     16 F16       -15.9837   -3.1699   58.4139 F       1  ZINC000271662144   -0.1400
     17 C17       -13.8789   -2.1336   58.0817 C.ar    1  ZINC000271662144   -0.1500
     18 C18       -12.6891   -1.6595   58.6010 C.ar    1  ZINC000271662144   -0.0700
     19 C19       -10.3495    0.9013   63.4376 C.ar    1  ZINC000271662144   -0.1100
     20 C20       -11.4035    1.6549   63.9184 C.ar    1  ZINC000271662144   -0.0400
     21 C21       -11.4312    2.0363   65.2470 C.ar    1  ZINC000271662144   -0.1400
     22 C22       -10.4051    1.6636   66.0945 C.ar    1  ZINC000271662144   -0.0200
     23 C23        -9.3511    0.9090   65.6139 C.ar    1  ZINC000271662144   -0.6800
     24 S24        -8.0426    0.4342   66.6943 S.o2    1  ZINC000271662144    2.7000
     25 N25        -6.6268    0.9441   66.0029 N.am    1  ZINC000271662144   -1.2500
     26 O26        -8.2064    1.1967   67.8822 O.2     1  ZINC000271662144   -0.9600
     27 O27        -8.0069   -0.9862   66.6812 O.2     1  ZINC000271662144   -0.9600
     28 C28        -9.3255    0.5240   64.2867 C.ar    1  ZINC000271662144   -0.0100
     29 H29       -10.4889    1.4158   60.0538 H       1  ZINC000271662144    0.0600
     30 H30       -11.4710    2.1809   61.3261 H       1  ZINC000271662144    0.0700
     31 H31        -9.7088    2.4300   61.2913 H       1  ZINC000271662144    0.0600
     32 H32       -11.5421   -1.0805   62.5286 H       1  ZINC000271662144    0.3500
     33 H33        -9.5733   -2.1684   61.6943 H       1  ZINC000271662144    0.1100
     34 H34       -10.8354   -3.2973   61.1458 H       1  ZINC000271662144    0.1200
     35 H35       -13.1694   -2.4285   61.8505 H       1  ZINC000271662144    0.1300
     36 H36       -15.2936   -3.2668   60.9304 H       1  ZINC000271662144    0.1400
     37 H37       -14.0774   -2.0509   57.0233 H       1  ZINC000271662144    0.1400
     38 H38       -11.9566   -1.2090   57.9476 H       1  ZINC000271662144    0.1300
     39 H39       -12.2053    1.9462   63.2561 H       1  ZINC000271662144    0.1400
     40 H40       -12.2546    2.6259   65.6226 H       1  ZINC000271662144    0.1400
     41 H41       -10.4264    1.9622   67.1323 H       1  ZINC000271662144    0.1400
     42 H42        -6.3694    0.6165   65.1269 H       1  ZINC000271662144    0.4200
     43 H43        -6.0550    1.5703   66.4738 H       1  ZINC000271662144    0.4200
     44 H44        -8.5023   -0.0655   63.9111 H       1  ZINC000271662144    0.1400
@<TRIPOS>BOND
     1     1     2    1
     2     1    29    1
     3     1    30    1
     4     1    31    1
     5     2     3    1
     6     2     4    1
     7     2    19    1
     8     4     5    1
     9     4    32    1
    10     5     6    1
    11     5     7    1
    12     5    12    1
    13     7     8    1
    14     7    33    1
    15     7    34    1
    16     8     9    1
    17     8    10    1
    18     8    11    1
    19    12    18   ar
    20    12    13   ar
    21    13    14   ar
    22    13    35    1
    23    14    15   ar
    24    14    36    1
    25    15    16    1
    26    15    17   ar
    27    17    18   ar
    28    17    37    1
    29    18    38    1
    30    19    28   ar
    31    19    20   ar
    32    20    21   ar
    33    20    39    1
    34    21    22   ar
    35    21    40    1
    36    22    23   ar
    37    22    41    1
    38    23    24    1
    39    23    28   ar
    40    24    25   am
    41    24    26    2
    42    24    27    2
    43    25    42    1
    44    25    43    1
    45    28    44    1
@<TRIPOS>SUBSTRUCTURE
     1 ZINC000271662144        1 TEMP              0 ****  ****    0 ROOT


##########                                Name:    ZINC000182378855
##########                DOCK_Rotatable_Bonds:                   8
##########                         Heavy_Atoms:                  27
##########                    Molecular_Weight:              394.83
##########                DOCK_Rotatable_Bonds:                   8
##########                       Formal_Charge:          -0.0200001
##########                     HBond_Acceptors:                   8
##########                        HBond_Donors:                   1
##########                         Heavy_Atoms:                  27
##########                          Grid_Score:          -34.912724
##########                     Grid_vdw_energy:          -34.992435
##########                      Grid_es_energy:            0.079711
##########           Internal_energy_repulsive:           12.629126

@<TRIPOS>MOLECULE
ZINC000182378855
 47 49 1 0 0
SMALL
USER_CHARGES


@<TRIPOS>ATOM
      1 C1         -3.2910    2.9241   51.9811 C.3     1  ZINC000182378855    0.0300
      2 O2         -3.8923    2.7881   50.6919 O.3     1  ZINC000182378855   -0.3900
      3 C3         -4.7177    1.6297   50.5547 C.3     1  ZINC000182378855    0.0600
      4 C4         -5.8536    1.6887   51.5780 C.3     1  ZINC000182378855    0.0700
      5 O5         -6.6790    0.5303   51.4409 O.3     1  ZINC000182378855   -0.2900
      6 C6         -7.6933    0.3877   52.3308 C.ar    1  ZINC000182378855    0.3300
      7 C7         -8.4846   -0.7526   52.2925 C.ar    1  ZINC000182378855   -0.1300
      8 C8         -9.5244   -0.8847   53.2148 C.ar    1  ZINC000182378855   -0.0600
      9 C9        -10.3949   -2.0837   53.2130 C.2     1  ZINC000182378855    0.5600
     10 O10       -10.3666   -2.8537   52.2735 O.2     1  ZINC000182378855   -0.5200
     11 N11       -11.2182   -2.3202   54.2535 N.am    1  ZINC000182378855   -0.7100
     12 C12       -12.0776   -3.5067   54.2527 C.3     1  ZINC000182378855    0.1200
     13 H13       -11.5388   -4.3671   53.8559 H       1  ZINC000182378855    0.1100
     14 C14       -13.3603   -3.2455   53.4316 C.3     1  ZINC000182378855   -0.1700
     15 C15       -14.5030   -3.4117   54.4577 C.3     1  ZINC000182378855    0.0400
     16 O16       -13.8884   -3.1555   55.7393 O.3     1  ZINC000182378855   -0.3600
     17 C17       -12.5972   -3.7997   55.6777 C.3     1  ZINC000182378855    0.1100
     18 H18       -12.7014   -4.8740   55.8300 H       1  ZINC000182378855    0.1000
     19 C19       -11.6672   -3.2104   56.7067 C.ar    1  ZINC000182378855   -0.0500
     20 C20       -11.8111   -1.8910   57.0925 C.ar    1  ZINC000182378855   -0.1100
     21 C21       -10.9624   -1.3502   58.0406 C.ar    1  ZINC000182378855   -0.0800
     22 C22        -9.9613   -2.1259   58.5956 C.ar    1  ZINC000182378855   -0.0700
     23 Cl23       -8.8915   -1.4453   59.7813 Cl      1  ZINC000182378855   -0.0400
     24 C24        -9.8131   -3.4473   58.2051 C.ar    1  ZINC000182378855    0.1200
     25 F25        -8.8358   -4.2069   58.7466 F       1  ZINC000182378855   -0.1200
     26 C26       -10.6673   -3.9883   57.2600 C.ar    1  ZINC000182378855   -0.1300
     27 C27        -9.7222    0.1453   54.1410 C.ar    1  ZINC000182378855   -0.1900
     28 C28        -8.8895    1.2456   54.1102 C.ar    1  ZINC000182378855    0.1400
     29 N29        -7.9135    1.3336   53.2276 N.ar    1  ZINC000182378855   -0.5200
     30 H30        -2.6632    2.0561   52.1825 H       1  ZINC000182378855    0.0400
     31 H31        -2.6809    3.8270   52.0040 H       1  ZINC000182378855    0.0900
     32 H32        -4.0704    2.9928   52.7400 H       1  ZINC000182378855    0.0400
     33 H33        -5.1362    1.5987   49.5487 H       1  ZINC000182378855    0.0600
     34 H34        -4.1195    0.7349   50.7272 H       1  ZINC000182378855    0.0700
     35 H35        -5.4352    1.7197   52.5840 H       1  ZINC000182378855    0.0800
     36 H36        -6.4518    2.5835   51.4056 H       1  ZINC000182378855    0.0800
     37 H37        -8.2988   -1.5250   51.5609 H       1  ZINC000182378855    0.1600
     38 H38       -11.2417   -1.7049   55.0030 H       1  ZINC000182378855    0.4000
     39 H39       -13.3549   -2.2336   53.0265 H       1  ZINC000182378855    0.0900
     40 H40       -13.4567   -3.9783   52.6306 H       1  ZINC000182378855    0.0900
     41 H41       -15.2943   -2.6873   54.2649 H       1  ZINC000182378855    0.1000
     42 H42       -14.9009   -4.4258   54.4217 H       1  ZINC000182378855    0.0700
     43 H43       -12.5897   -1.2830   56.6558 H       1  ZINC000182378855    0.1500
     44 H44       -11.0786   -0.3204   58.3444 H       1  ZINC000182378855    0.1500
     45 H45       -10.5530   -5.0181   56.9550 H       1  ZINC000182378855    0.1500
     46 H46       -10.5158    0.0800   54.8706 H       1  ZINC000182378855    0.1400
     47 H47        -9.0366    2.0441   54.8222 H       1  ZINC000182378855    0.1700
@<TRIPOS>BOND
     1     1     2    1
     2     1    30    1
     3     1    31    1
     4     1    32    1
     5     2     3    1
     6     3     4    1
     7     3    33    1
     8     3    34    1
     9     4     5    1
    10     4    35    1
    11     4    36    1
    12     5     6    1
    13     6    29   ar
    14     6     7   ar
    15     7     8   ar
    16     7    37    1
    17     8     9    1
    18     8    27   ar
    19     9    10    2
    20     9    11   am
    21    11    12    1
    22    11    38    1
    23    12    13    1
    24    12    17    1
    25    12    14    1
    26    14    15    1
    27    14    39    1
    28    14    40    1
    29    15    16    1
    30    15    41    1
    31    15    42    1
    32    16    17    1
    33    17    18    1
    34    17    19    1
    35    19    26   ar
    36    19    20   ar
    37    20    21   ar
    38    20    43    1
    39    21    22   ar
    40    21    44    1
    41    22    23    1
    42    22    24   ar
    43    24    25    1
    44    24    26   ar
    45    26    45    1
    46    27    28   ar
    47    27    46    1
    48    28    29   ar
    49    28    47    1
@<TRIPOS>SUBSTRUCTURE
     1 ZINC000182378855        1 TEMP              0 ****  ****    0 ROOT


##########                                Name:    ZINC000989658617
##########                DOCK_Rotatable_Bonds:                   6
##########                         Heavy_Atoms:                  24
##########                    Molecular_Weight:             334.418
##########                DOCK_Rotatable_Bonds:                   6
##########                       Formal_Charge:          -0.0100001
##########                     HBond_Acceptors:                   7
##########                        HBond_Donors:                   2
##########                         Heavy_Atoms:                  24
##########                          Grid_Score:          -34.905830
##########                     Grid_vdw_energy:          -33.404827
##########                      Grid_es_energy:           -1.501004
##########           Internal_energy_repulsive:           12.408780

@<TRIPOS>MOLECULE
ZINC000989658617
 50 52 1 0 0
SMALL
USER_CHARGES


@<TRIPOS>ATOM
      1 C1        -13.8503   -0.7692   49.7508 C.3     1  ZINC000989658617    0.0300
      2 O2        -13.3193   -0.5672   51.0620 O.3     1  ZINC000989658617   -0.3700
      3 C3        -12.8446   -1.7614   51.6872 C.3     1  ZINC000989658617    0.0500
      4 C4        -13.9456   -2.3630   52.5220 C.2     1  ZINC000989658617    0.5300
      5 O5        -15.1010   -2.2573   52.1691 O.2     1  ZINC000989658617   -0.5100
      6 N6        -13.6461   -3.0187   53.6608 N.am    1  ZINC000989658617   -0.6200
      7 C7        -14.6193   -3.6525   54.5687 C.3     1  ZINC000989658617    0.1000
      8 C8        -13.9078   -3.6975   55.9440 C.3     1  ZINC000989658617   -0.1500
      9 C9        -12.4438   -3.9985   55.5276 C.3     1  ZINC000989658617    0.1400
     10 H10       -12.3007   -5.0669   55.3661 H       1  ZINC000989658617    0.1100
     11 N11       -11.5051   -3.4982   56.5350 N.am    1  ZINC000989658617   -0.7100
     12 C12       -11.1571   -4.2778   57.5779 C.2     1  ZINC000989658617    0.6100
     13 O13       -11.6233   -5.3955   57.6835 O.2     1  ZINC000989658617   -0.5200
     14 C14       -10.2093   -3.7740   58.5926 C.2     1  ZINC000989658617   -0.0100
     15 N15        -9.0143   -4.2668   58.8706 N.2     1  ZINC000989658617   -0.2600
     16 N16        -8.4592   -3.5817   59.8100 N.pl3   1  ZINC000989658617   -0.3700
     17 C17        -9.2757   -2.5889   60.1997 C.2     1  ZINC000989658617    0.0100
     18 C18       -10.3994   -2.6744   59.4460 C.2     1  ZINC000989658617   -0.1400
     19 C19       -11.5791   -1.7491   59.5631 C.3     1  ZINC000989658617   -0.0400
     20 C20       -11.4719   -0.9987   60.8976 C.3     1  ZINC000989658617   -0.0900
     21 H21       -11.6629   -1.6893   61.7190 H       1  ZINC000989658617    0.0700
     22 C22       -12.5028    0.1313   60.9314 C.3     1  ZINC000989658617   -0.1500
     23 C23       -10.0657   -0.4105   61.0420 C.3     1  ZINC000989658617   -0.1100
     24 C24        -9.0514   -1.5392   61.2576 C.3     1  ZINC000989658617   -0.0500
     25 C25       -12.2940   -3.2260   54.2000 C.3     1  ZINC000989658617    0.1300
     26 H26       -11.8217   -2.2610   54.3838 H       1  ZINC000989658617    0.0800
     27 C27       -11.4498   -4.0395   53.2170 C.3     1  ZINC000989658617   -0.1600
     28 H28       -13.0763   -1.1844   49.1053 H       1  ZINC000989658617    0.0500
     29 H29       -14.6908   -1.4616   49.8018 H       1  ZINC000989658617    0.0400
     30 H30       -14.1891    0.1841   49.3451 H       1  ZINC000989658617    0.0900
     31 H31       -12.5375   -2.4745   50.9223 H       1  ZINC000989658617    0.0800
     32 H32       -11.9934   -1.5237   52.3252 H       1  ZINC000989658617    0.0800
     33 H33       -15.5271   -3.0522   54.6307 H       1  ZINC000989658617    0.0800
     34 H34       -14.8533   -4.6616   54.2296 H       1  ZINC000989658617    0.0800
     35 H35       -13.9795   -2.7360   56.4526 H       1  ZINC000989658617    0.0800
     36 H36       -14.3096   -4.4975   56.5659 H       1  ZINC000989658617    0.1000
     37 H37       -11.1340   -2.6059   56.4514 H       1  ZINC000989658617    0.4100
     38 H38        -7.5805   -3.7571   60.1813 H       1  ZINC000989658617    0.4500
     39 H39       -11.5700   -1.0360   58.7388 H       1  ZINC000989658617    0.0800
     40 H40       -12.5031   -2.3268   59.5396 H       1  ZINC000989658617    0.0800
     41 H41       -13.5041   -0.2872   60.8293 H       1  ZINC000989658617    0.0600
     42 H42       -12.4268    0.6643   61.8791 H       1  ZINC000989658617    0.0600
     43 H43       -12.3122    0.8218   60.1099 H       1  ZINC000989658617    0.0600
     44 H44        -9.8069    0.1376   60.1362 H       1  ZINC000989658617    0.0700
     45 H45       -10.0419    0.2676   61.8951 H       1  ZINC000989658617    0.0800
     46 H46        -9.1975   -1.9810   62.2432 H       1  ZINC000989658617    0.0800
     47 H47        -8.0390   -1.1432   61.1785 H       1  ZINC000989658617    0.0800
     48 H48       -11.9369   -4.9953   53.0240 H       1  ZINC000989658617    0.0600
     49 H49       -11.3484   -3.4881   52.2823 H       1  ZINC000989658617    0.0700
     50 H50       -10.4625   -4.2147   53.6444 H       1  ZINC000989658617    0.0700
@<TRIPOS>BOND
     1     1     2    1
     2     1    28    1
     3     1    29    1
     4     1    30    1
     5     2     3    1
     6     3     4    1
     7     3    31    1
     8     3    32    1
     9     4     5    2
    10     4     6   am
    11     6    25    1
    12     6     7    1
    13     7     8    1
    14     7    33    1
    15     7    34    1
    16     8     9    1
    17     8    35    1
    18     8    36    1
    19     9    10    1
    20     9    11    1
    21     9    25    1
    22    11    12   am
    23    11    37    1
    24    12    13    2
    25    12    14    1
    26    14    18    1
    27    14    15    2
    28    15    16    1
    29    16    17    1
    30    16    38    1
    31    17    24    1
    32    17    18    2
    33    18    19    1
    34    19    20    1
    35    19    39    1
    36    19    40    1
    37    20    21    1
    38    20    22    1
    39    20    23    1
    40    22    41    1
    41    22    42    1
    42    22    43    1
    43    23    24    1
    44    23    44    1
    45    23    45    1
    46    24    46    1
    47    24    47    1
    48    25    26    1
    49    25    27    1
    50    27    48    1
    51    27    49    1
    52    27    50    1
@<TRIPOS>SUBSTRUCTURE
     1 ZINC000989658617        1 TEMP              0 ****  ****    0 ROOT


##########                                Name:    ZINC000563265674
##########                DOCK_Rotatable_Bonds:                   7
##########                         Heavy_Atoms:                  25
##########                    Molecular_Weight:             386.859
##########                DOCK_Rotatable_Bonds:                   7
##########                       Formal_Charge:          0.00999963
##########                     HBond_Acceptors:                  10
##########                        HBond_Donors:                   2
##########                         Heavy_Atoms:                  25
##########                          Grid_Score:          -34.892799
##########                     Grid_vdw_energy:          -29.792265
##########                      Grid_es_energy:           -5.100534
##########           Internal_energy_repulsive:           16.724497

@<TRIPOS>MOLECULE
ZINC000563265674
 44 45 1 0 0
SMALL
USER_CHARGES


@<TRIPOS>ATOM
      1 C1         -1.3341    1.6382   64.4673 C.3     1  ZINC000563265674   -0.0600
      2 C2         -2.7299    2.2021   64.5367 C.2     1  ZINC000563265674    0.1700
      3 N3         -3.1635    3.2597   63.9185 N.2     1  ZINC000563265674   -0.3800
      4 O4         -4.3326    3.4494   64.1806 O.3     1  ZINC000563265674    0.0900
      5 C5         -4.7689    2.5021   65.0163 C.2     1  ZINC000563265674    0.1900
      6 C6         -6.1597    2.3764   65.5829 C.3     1  ZINC000563265674    0.2100
      7 C7         -6.0888    1.7377   66.9715 C.3     1  ZINC000563265674   -0.1400
      8 C8         -6.7935    3.7646   65.6918 C.3     1  ZINC000563265674   -0.1800
      9 N9         -6.9748    1.5339   64.6976 N.3     1  ZINC000563265674   -0.6600
     10 C10        -8.3656    1.4694   65.1661 C.3     1  ZINC000563265674    0.0400
     11 C11        -9.1553    0.5503   64.2702 C.2     1  ZINC000563265674    0.5200
     12 O12        -9.1271   -0.6482   64.4547 O.2     1  ZINC000563265674   -0.4900
     13 N13        -9.8930    1.0599   63.2640 N.am    1  ZINC000563265674   -0.6700
     14 C14       -10.6265    0.2061   62.4317 C.ar    1  ZINC000563265674    0.1400
     15 C15        -9.9820   -0.5240   61.4426 C.ar    1  ZINC000563265674   -0.0300
     16 C16       -10.7085   -1.3661   60.6231 C.ar    1  ZINC000563265674   -0.6400
     17 S17        -9.8907   -2.2934   59.3677 S.o2    1  ZINC000563265674    2.5000
     18 C18        -8.8536   -3.4710   60.2779 C.3     1  ZINC000563265674   -0.6500
     19 O19       -10.9410   -2.9719   58.6927 O.2     1  ZINC000563265674   -0.9300
     20 O20        -9.0848   -1.3363   58.6940 O.2     1  ZINC000563265674   -0.9300
     21 C21       -12.0764   -1.4826   60.7869 C.ar    1  ZINC000563265674   -0.0300
     22 C22       -12.7225   -0.7567   61.7709 C.ar    1  ZINC000563265674   -0.1100
     23 C23       -12.0010    0.0832   62.5978 C.ar    1  ZINC000563265674   -0.0200
     24 Cl24      -12.8122    0.9938   63.8332 Cl      1  ZINC000563265674   -0.0500
     25 N25        -3.7570    1.7001   65.2451 N.2     1  ZINC000563265674   -0.4700
     26 H26        -1.2708    0.9250   63.6454 H       1  ZINC000563265674    0.0900
     27 H27        -0.6230    2.4475   64.3017 H       1  ZINC000563265674    0.0900
     28 H28        -1.0990    1.1340   65.4048 H       1  ZINC000563265674    0.0900
     29 H29        -5.4839    2.3627   67.6284 H       1  ZINC000563265674    0.0800
     30 H30        -7.0947    1.6468   67.3813 H       1  ZINC000563265674    0.0800
     31 H31        -5.6372    0.7487   66.8939 H       1  ZINC000563265674    0.0700
     32 H32        -6.8440    4.2195   64.7026 H       1  ZINC000563265674    0.0700
     33 H33        -7.7994    3.6736   66.1017 H       1  ZINC000563265674    0.0800
     34 H34        -6.1886    4.3897   66.3487 H       1  ZINC000563265674    0.0800
     35 H35        -6.9293    1.8613   63.7442 H       1  ZINC000563265674    0.3600
     36 H36        -8.3878    1.0888   66.1872 H       1  ZINC000563265674    0.1200
     37 H37        -8.8043    2.4669   65.1405 H       1  ZINC000563265674    0.0800
     38 H38        -9.9156    2.0183   63.1164 H       1  ZINC000563265674    0.4200
     39 H39        -8.9136   -0.4334   61.3135 H       1  ZINC000563265674    0.1700
     40 H40        -9.4843   -4.1019   60.9042 H       1  ZINC000563265674    0.1300
     41 H41        -8.3047   -4.0934   59.5713 H       1  ZINC000563265674    0.1400
     42 H42        -8.1488   -2.9252   60.9052 H       1  ZINC000563265674    0.1400
     43 H43       -12.6417   -2.1417   60.1447 H       1  ZINC000563265674    0.1500
     44 H44       -13.7912   -0.8496   61.8961 H       1  ZINC000563265674    0.1500
@<TRIPOS>BOND
     1     1     2    1
     2     1    26    1
     3     1    27    1
     4     1    28    1
     5     2    25    1
     6     2     3    2
     7     3     4    1
     8     4     5    1
     9     5     6    1
    10     5    25    2
    11     6     7    1
    12     6     8    1
    13     6     9    1
    14     7    29    1
    15     7    30    1
    16     7    31    1
    17     8    32    1
    18     8    33    1
    19     8    34    1
    20     9    10    1
    21     9    35    1
    22    10    11    1
    23    10    36    1
    24    10    37    1
    25    11    12    2
    26    11    13   am
    27    13    14    1
    28    13    38    1
    29    14    23   ar
    30    14    15   ar
    31    15    16   ar
    32    15    39    1
    33    16    17    1
    34    16    21   ar
    35    17    18    1
    36    17    19    2
    37    17    20    2
    38    18    40    1
    39    18    41    1
    40    18    42    1
    41    21    22   ar
    42    21    43    1
    43    22    23   ar
    44    22    44    1
    45    23    24    1
@<TRIPOS>SUBSTRUCTURE
     1 ZINC000563265674        1 TEMP              0 ****  ****    0 ROOT


##########                                Name:    ZINC001127302705
##########                DOCK_Rotatable_Bonds:                   9
##########                         Heavy_Atoms:                  28
##########                    Molecular_Weight:             398.892
##########                DOCK_Rotatable_Bonds:                   9
##########                       Formal_Charge:          -0.0200002
##########                     HBond_Acceptors:                   7
##########                        HBond_Donors:                   1
##########                         Heavy_Atoms:                  28
##########                          Grid_Score:          -34.885082
##########                     Grid_vdw_energy:          -33.582611
##########                      Grid_es_energy:           -1.302469
##########           Internal_energy_repulsive:           24.751463

@<TRIPOS>MOLECULE
ZINC001127302705
 51 53 1 0 0
SMALL
USER_CHARGES


@<TRIPOS>ATOM
      1 C1        -10.7055    1.3931   62.0820 C.3     1  ZINC001127302705   -0.1500
      2 C2        -11.1571   -0.0561   61.8896 C.3     1  ZINC001127302705   -0.1400
      3 C3        -10.2707   -0.7316   60.8413 C.3     1  ZINC001127302705    0.1800
      4 C4         -8.9679   -1.1943   61.4968 C.3     1  ZINC001127302705   -0.1600
      5 C5        -11.0040   -1.9398   60.2553 C.3     1  ZINC001127302705    0.0700
      6 O6        -11.9181   -1.4999   59.2489 O.3     1  ZINC001127302705   -0.2800
      7 C7        -12.6915   -2.4481   58.6622 C.ar    1  ZINC001127302705    0.3400
      8 N8        -12.3084   -2.9902   57.5187 N.ar    1  ZINC001127302705   -0.5300
      9 C9        -13.0300   -3.9155   56.9147 C.ar    1  ZINC001127302705    0.1400
     10 C10       -14.2202   -4.3533   57.4599 C.ar    1  ZINC001127302705   -0.2000
     11 C11       -14.6584   -3.8095   58.6597 C.ar    1  ZINC001127302705   -0.0300
     12 C12       -13.8763   -2.8447   59.2720 C.ar    1  ZINC001127302705   -0.1100
     13 Cl13      -14.3751   -2.1304   60.7735 Cl      1  ZINC001127302705   -0.0400
     14 N14        -9.9671    0.2216   59.7710 N.am    1  ZINC001127302705   -0.7100
     15 C15        -9.2601   -0.1764   58.6947 C.2     1  ZINC001127302705    0.6200
     16 O16        -8.8755   -1.3267   58.6114 O.2     1  ZINC001127302705   -0.5200
     17 C17        -8.9526    0.7850   57.6164 C.2     1  ZINC001127302705   -0.0200
     18 N18        -8.7502    0.5000   56.3455 N.2     1  ZINC001127302705   -0.2500
     19 N19        -8.5070    1.5752   55.6857 N.pl3   1  ZINC001127302705   -0.2800
     20 C20        -8.2352    1.6321   54.2473 C.3     1  ZINC001127302705    0.1600
     21 C21        -8.9318    0.4869   53.5588 C.ar    1  ZINC001127302705   -0.1200
     22 C22        -8.2380   -0.3077   52.6655 C.ar    1  ZINC001127302705   -0.1000
     23 C23        -8.8770   -1.3582   52.0339 C.ar    1  ZINC001127302705   -0.1200
     24 C24       -10.2100   -1.6143   52.2959 C.ar    1  ZINC001127302705   -0.1100
     25 C25       -10.9037   -0.8203   53.1899 C.ar    1  ZINC001127302705   -0.1200
     26 C26       -10.2633    0.2276   53.8247 C.ar    1  ZINC001127302705   -0.0800
     27 C27        -8.5382    2.6452   56.5088 C.2     1  ZINC001127302705   -0.0200
     28 C28        -8.8253    2.1880   57.7502 C.2     1  ZINC001127302705   -0.1800
     29 H29       -10.7891    1.9283   61.1361 H       1  ZINC001127302705    0.0500
     30 H30       -11.3370    1.8743   62.8288 H       1  ZINC001127302705    0.0600
     31 H31        -9.6688    1.4091   62.4181 H       1  ZINC001127302705    0.0500
     32 H32       -11.0734   -0.5913   62.8355 H       1  ZINC001127302705    0.0900
     33 H33       -12.1938   -0.0720   61.5535 H       1  ZINC001127302705    0.0800
     34 H34        -9.1937   -1.9035   62.2931 H       1  ZINC001127302705    0.0700
     35 H35        -8.3364   -1.6755   60.7499 H       1  ZINC001127302705    0.0500
     36 H36        -8.4454   -0.3335   61.9142 H       1  ZINC001127302705    0.0800
     37 H37       -10.2803   -2.6253   59.8143 H       1  ZINC001127302705    0.0800
     38 H38       -11.5528   -2.4505   61.0465 H       1  ZINC001127302705    0.0700
     39 H39       -12.6849   -4.3356   55.9814 H       1  ZINC001127302705    0.1700
     40 H40       -14.8045   -5.1104   56.9582 H       1  ZINC001127302705    0.1500
     41 H41       -15.5859   -4.1345   59.1075 H       1  ZINC001127302705    0.1500
     42 H42       -10.2749    1.1390   59.8368 H       1  ZINC001127302705    0.4100
     43 H43        -8.6030    2.5759   53.8451 H       1  ZINC001127302705    0.1000
     44 H44        -7.1609    1.5588   54.0774 H       1  ZINC001127302705    0.1100
     45 H45        -7.1966   -0.1076   52.4609 H       1  ZINC001127302705    0.1200
     46 H46        -8.3350   -1.9786   51.3355 H       1  ZINC001127302705    0.1300
     47 H47       -10.7095   -2.4346   51.8019 H       1  ZINC001127302705    0.1200
     48 H48       -11.9451   -1.0201   53.3942 H       1  ZINC001127302705    0.1300
     49 H49       -10.8053    0.8480   54.5230 H       1  ZINC001127302705    0.1300
     50 H50        -8.3703    3.6745   56.2282 H       1  ZINC001127302705    0.1800
     51 H51        -8.9282    2.7705   58.6538 H       1  ZINC001127302705    0.1600
@<TRIPOS>BOND
     1     1     2    1
     2     1    29    1
     3     1    30    1
     4     1    31    1
     5     2     3    1
     6     2    32    1
     7     2    33    1
     8     3     4    1
     9     3     5    1
    10     3    14    1
    11     4    34    1
    12     4    35    1
    13     4    36    1
    14     5     6    1
    15     5    37    1
    16     5    38    1
    17     6     7    1
    18     7    12   ar
    19     7     8   ar
    20     8     9   ar
    21     9    10   ar
    22     9    39    1
    23    10    11   ar
    24    10    40    1
    25    11    12   ar
    26    11    41    1
    27    12    13    1
    28    14    15   am
    29    14    42    1
    30    15    16    2
    31    15    17    1
    32    17    28    1
    33    17    18    2
    34    18    19    1
    35    19    20    1
    36    19    27    1
    37    20    21    1
    38    20    43    1
    39    20    44    1
    40    21    26   ar
    41    21    22   ar
    42    22    23   ar
    43    22    45    1
    44    23    24   ar
    45    23    46    1
    46    24    25   ar
    47    24    47    1
    48    25    26   ar
    49    25    48    1
    50    26    49    1
    51    27    28    2
    52    27    50    1
    53    28    51    1
@<TRIPOS>SUBSTRUCTURE
     1 ZINC001127302705        1 TEMP              0 ****  ****    0 ROOT


##########                                Name:    ZINC001109848453
##########                DOCK_Rotatable_Bonds:                   8
##########                         Heavy_Atoms:                  24
##########                    Molecular_Weight:             328.337
##########                DOCK_Rotatable_Bonds:                   8
##########                       Formal_Charge:          0.00999966
##########                     HBond_Acceptors:                  11
##########                        HBond_Donors:                   2
##########                         Heavy_Atoms:                  24
##########                          Grid_Score:          -34.873997
##########                     Grid_vdw_energy:          -34.022739
##########                      Grid_es_energy:           -0.851256
##########           Internal_energy_repulsive:            7.303226

@<TRIPOS>MOLECULE
ZINC001109848453
 40 43 1 0 0
SMALL
USER_CHARGES


@<TRIPOS>ATOM
      1 O1        -12.1730   -5.2690   56.6172 O.2     1  ZINC001109848453   -0.5000
      2 C2        -13.1346   -4.5312   56.6613 C.2     1  ZINC001109848453    0.5000
      3 C3        -14.4596   -5.0493   57.1582 C.3     1  ZINC001109848453    0.1100
      4 N4        -15.2206   -3.9496   57.7565 N.pl3   1  ZINC001109848453   -0.3700
      5 C5        -15.2492   -3.6023   59.0548 C.2     1  ZINC001109848453    0.2600
      6 N6        -16.0446   -2.5713   59.1818 N.2     1  ZINC001109848453   -0.5400
      7 C7        -16.5401   -2.2334   57.9920 C.2     1  ZINC001109848453    0.2000
      8 N8        -16.0607   -3.0452   57.0866 N.2     1  ZINC001109848453   -0.2900
      9 N9        -13.0168   -3.2465   56.2713 N.am    1  ZINC001109848453   -0.7300
     10 C10       -11.7286   -2.7429   55.7883 C.3     1  ZINC001109848453    0.1700
     11 H11       -10.9505   -3.4776   55.9952 H       1  ZINC001109848453    0.1000
     12 C12       -11.3941   -1.4311   56.5013 C.3     1  ZINC001109848453    0.1200
     13 N13       -11.7899   -1.5257   57.9087 N.pl3   1  ZINC001109848453   -0.6800
     14 C14       -10.8321   -1.4347   58.9051 C.2     1  ZINC001109848453    0.4900
     15 N15       -10.7140   -0.3298   59.6158 N.2     1  ZINC001109848453   -0.5300
     16 C16        -9.7962   -0.2260   60.5802 C.2     1  ZINC001109848453    0.1400
     17 C17        -8.9562   -1.2425   60.8649 C.2     1  ZINC001109848453   -0.0500
     18 N18        -9.0344   -2.4110   60.1594 N.pl3   1  ZINC001109848453   -0.1800
     19 N19        -8.3924   -3.5245   60.1955 N.2     1  ZINC001109848453   -0.1000
     20 N20        -8.8670   -4.3181   59.2990 N.2     1  ZINC001109848453   -0.0400
     21 N21        -9.8273   -3.7390   58.6606 N.2     1  ZINC001109848453   -0.2600
     22 C22        -9.9754   -2.5280   59.1738 C.2     1  ZINC001109848453    0.1000
     23 C23       -11.8101   -2.4972   54.2803 C.3     1  ZINC001109848453   -0.1800
     24 C24       -10.6944   -3.0773   53.4088 C.3     1  ZINC001109848453   -0.1700
     25 C25       -12.0901   -3.7037   53.3821 C.3     1  ZINC001109848453   -0.1700
     26 H26       -15.0219   -5.4684   56.3237 H       1  ZINC001109848453    0.1300
     27 H27       -14.2897   -5.8230   57.9069 H       1  ZINC001109848453    0.1200
     28 H28       -14.7101   -4.0896   59.8537 H       1  ZINC001109848453    0.2200
     29 H29       -17.2237   -1.4184   57.8054 H       1  ZINC001109848453    0.2200
     30 H30       -13.7849   -2.6554   56.3104 H       1  ZINC001109848453    0.4000
     31 H31       -10.3219   -1.2458   56.4371 H       1  ZINC001109848453    0.1000
     32 H32       -11.9336   -0.6117   56.0264 H       1  ZINC001109848453    0.0900
     33 H33       -12.7227   -1.6521   58.1428 H       1  ZINC001109848453    0.4200
     34 H34        -9.7245    0.6921   61.1446 H       1  ZINC001109848453    0.2000
     35 H35        -8.2221   -1.1333   61.6494 H       1  ZINC001109848453    0.1900
     36 H36       -12.2350   -1.5386   53.9824 H       1  ZINC001109848453    0.1100
     37 H37       -10.3849   -2.5004   52.5373 H       1  ZINC001109848453    0.1000
     38 H38        -9.9024   -3.6340   53.9097 H       1  ZINC001109848453    0.1000
     39 H39       -12.2162   -4.6725   53.8655 H       1  ZINC001109848453    0.1200
     40 H40       -12.6988   -3.5389   52.4931 H       1  ZINC001109848453    0.0900
@<TRIPOS>BOND
     1     1     2    2
     2     2     3    1
     3     2     9   am
     4     3     4    1
     5     3    26    1
     6     3    27    1
     7     4     8    1
     8     4     5    1
     9     5     6    2
    10     5    28    1
    11     6     7    1
    12     7     8    2
    13     7    29    1
    14     9    10    1
    15     9    30    1
    16    10    11    1
    17    10    12    1
    18    10    23    1
    19    12    13    1
    20    12    31    1
    21    12    32    1
    22    13    14    1
    23    13    33    1
    24    14    22    1
    25    14    15    2
    26    15    16    1
    27    16    17    2
    28    16    34    1
    29    17    18    1
    30    17    35    1
    31    18    22    1
    32    18    19    1
    33    19    20    2
    34    20    21    1
    35    21    22    2
    36    23    25    1
    37    23    24    1
    38    23    36    1
    39    24    25    1
    40    24    37    1
    41    24    38    1
    42    25    39    1
    43    25    40    1
@<TRIPOS>SUBSTRUCTURE
     1 ZINC001109848453        1 TEMP              0 ****  ****    0 ROOT


##########                                Name:    ZINC000506156755
##########                DOCK_Rotatable_Bonds:                   7
##########                         Heavy_Atoms:                  30
##########                    Molecular_Weight:             400.434
##########                DOCK_Rotatable_Bonds:                   7
##########                       Formal_Charge:          -0.0200001
##########                     HBond_Acceptors:                   6
##########                        HBond_Donors:                   1
##########                         Heavy_Atoms:                  30
##########                          Grid_Score:          -34.872723
##########                     Grid_vdw_energy:          -33.267815
##########                      Grid_es_energy:           -1.604906
##########           Internal_energy_repulsive:           10.516205

@<TRIPOS>MOLECULE
ZINC000506156755
 50 53 1 0 0
SMALL
USER_CHARGES


@<TRIPOS>ATOM
      1 C1        -11.8120   -4.1330   52.8610 C.3     1  ZINC000506156755   -0.1600
      2 C2        -11.5316   -2.9559   53.7973 C.3     1  ZINC000506156755    0.1900
      3 H3        -10.4553   -2.8430   53.9268 H       1  ZINC000506156755    0.1000
      4 N4        -12.1564   -3.2072   55.0983 N.am    1  ZINC000506156755   -0.7200
      5 C5        -11.4458   -3.7856   56.0867 C.2     1  ZINC000506156755    0.5000
      6 O6        -10.2895   -4.0994   55.8985 O.2     1  ZINC000506156755   -0.5200
      7 C7        -12.0879   -4.0424   57.4256 C.3     1  ZINC000506156755    0.0900
      8 N8        -11.4311   -3.2234   58.4473 N.am    1  ZINC000506156755   -0.5600
      9 C9        -10.2526   -3.5242   59.0221 C.2     1  ZINC000506156755    0.5800
     10 O10        -9.5750   -4.5026   58.7800 O.2     1  ZINC000506156755   -0.4600
     11 C11        -9.9199   -2.4642   59.9971 C.ar    1  ZINC000506156755   -0.1400
     12 C12        -8.8610   -2.2435   60.8625 C.ar    1  ZINC000506156755   -0.0400
     13 C13        -8.8554   -1.1149   61.6680 C.ar    1  ZINC000506156755   -0.0900
     14 C14        -9.8981   -0.2098   61.6130 C.ar    1  ZINC000506156755   -0.0900
     15 C15       -10.9646   -0.4177   60.7516 C.ar    1  ZINC000506156755   -0.0400
     16 C16       -10.9838   -1.5408   59.9410 C.ar    1  ZINC000506156755   -0.1400
     17 C17       -11.9243   -2.0687   58.9301 C.2     1  ZINC000506156755    0.5800
     18 O18       -12.9685   -1.5480   58.5932 O.2     1  ZINC000506156755   -0.4600
     19 C19       -12.1010   -1.6939   53.2019 C.ar    1  ZINC000506156755   -0.1200
     20 C20       -13.4689   -1.5348   53.0976 C.ar    1  ZINC000506156755   -0.0800
     21 C21       -13.9921   -0.3769   52.5518 C.ar    1  ZINC000506156755   -0.1400
     22 C22       -13.1478    0.6245   52.1094 C.ar    1  ZINC000506156755   -0.0800
     23 C23       -11.7786    0.4705   52.2115 C.ar    1  ZINC000506156755   -0.1900
     24 C24       -11.2513   -0.6880   52.7635 C.ar    1  ZINC000506156755    0.1300
     25 O25        -9.9050   -0.8418   52.8654 O.3     1  ZINC000506156755   -0.2500
     26 C26        -9.1603    0.2502   53.1807 C.ar    1  ZINC000506156755    0.0800
     27 C27        -9.5188    1.0488   54.2573 C.ar    1  ZINC000506156755   -0.1400
     28 C28        -8.7600    2.1583   54.5756 C.ar    1  ZINC000506156755   -0.1000
     29 C29        -7.6441    2.4735   53.8224 C.ar    1  ZINC000506156755   -0.1200
     30 C30        -7.2847    1.6794   52.7491 C.ar    1  ZINC000506156755   -0.1000
     31 C31        -8.0367    0.5655   52.4299 C.ar    1  ZINC000506156755   -0.1200
     32 H32       -11.4001   -5.0458   53.2916 H       1  ZINC000506156755    0.0700
     33 H33       -12.8883   -4.2459   52.7314 H       1  ZINC000506156755    0.0600
     34 H34       -11.3471   -3.9460   51.8930 H       1  ZINC000506156755    0.0700
     35 H35       -13.0816   -2.9572   55.2485 H       1  ZINC000506156755    0.4000
     36 H36       -13.1456   -3.7834   57.3769 H       1  ZINC000506156755    0.1300
     37 H37       -11.9835   -5.0965   57.6824 H       1  ZINC000506156755    0.1300
     38 H38        -8.0436   -2.9476   60.9100 H       1  ZINC000506156755    0.1400
     39 H39        -8.0305   -0.9421   62.3433 H       1  ZINC000506156755    0.1400
     40 H40        -9.8826    0.6653   62.2456 H       1  ZINC000506156755    0.1400
     41 H41       -11.7767    0.2932   60.7125 H       1  ZINC000506156755    0.1400
     42 H42       -14.1308   -2.3158   53.4421 H       1  ZINC000506156755    0.1300
     43 H43       -15.0621   -0.2548   52.4707 H       1  ZINC000506156755    0.1300
     44 H44       -13.5588    1.5277   51.6833 H       1  ZINC000506156755    0.1300
     45 H45       -11.1195    1.2528   51.8655 H       1  ZINC000506156755    0.1300
     46 H46       -10.3904    0.8032   54.8458 H       1  ZINC000506156755    0.1300
     47 H47        -9.0387    2.7804   55.4133 H       1  ZINC000506156755    0.1300
     48 H48        -7.0524    3.3416   54.0727 H       1  ZINC000506156755    0.1300
     49 H49        -6.4126    1.9277   52.1623 H       1  ZINC000506156755    0.1300
     50 H50        -7.7554   -0.0546   51.5917 H       1  ZINC000506156755    0.1300
@<TRIPOS>BOND
     1     1     2    1
     2     1    32    1
     3     1    33    1
     4     1    34    1
     5     2     3    1
     6     2     4    1
     7     2    19    1
     8     4     5   am
     9     4    35    1
    10     5     6    2
    11     5     7    1
    12     7     8    1
    13     7    36    1
    14     7    37    1
    15     8    17   am
    16     8     9   am
    17     9    10    2
    18     9    11    1
    19    11    16   ar
    20    11    12   ar
    21    12    13   ar
    22    12    38    1
    23    13    14   ar
    24    13    39    1
    25    14    15   ar
    26    14    40    1
    27    15    16   ar
    28    15    41    1
    29    16    17    1
    30    17    18    2
    31    19    24   ar
    32    19    20   ar
    33    20    21   ar
    34    20    42    1
    35    21    22   ar
    36    21    43    1
    37    22    23   ar
    38    22    44    1
    39    23    24   ar
    40    23    45    1
    41    24    25    1
    42    25    26    1
    43    26    31   ar
    44    26    27   ar
    45    27    28   ar
    46    27    46    1
    47    28    29   ar
    48    28    47    1
    49    29    30   ar
    50    29    48    1
    51    30    31   ar
    52    30    49    1
    53    31    50    1
@<TRIPOS>SUBSTRUCTURE
     1 ZINC000506156755        1 TEMP              0 ****  ****    0 ROOT


##########                                Name:    ZINC000532153088
##########                DOCK_Rotatable_Bonds:                  11
##########                         Heavy_Atoms:                  29
##########                    Molecular_Weight:             402.484
##########                DOCK_Rotatable_Bonds:                  11
##########                       Formal_Charge:          -0.0200009
##########                     HBond_Acceptors:                   6
##########                        HBond_Donors:                   1
##########                         Heavy_Atoms:                  29
##########                          Grid_Score:          -34.837753
##########                     Grid_vdw_energy:          -34.842964
##########                      Grid_es_energy:            0.005213
##########           Internal_energy_repulsive:           12.514500

@<TRIPOS>MOLECULE
ZINC000532153088
 57 59 1 0 0
SMALL
USER_CHARGES


@<TRIPOS>ATOM
      1 C1        -12.9439   -0.7898   52.1801 C.3     1  ZINC000532153088   -0.1800
      2 C2        -11.6445   -1.3478   52.7643 C.3     1  ZINC000532153088    0.0800
      3 C3        -11.4704   -2.8025   52.3235 C.3     1  ZINC000532153088   -0.1500
      4 O4        -10.5396   -0.5724   52.2952 O.3     1  ZINC000532153088   -0.3800
      5 C5         -9.3256   -0.7955   53.0153 C.3     1  ZINC000532153088    0.1000
      6 C6         -8.2963    0.2204   52.5912 C.ar    1  ZINC000532153088   -0.0700
      7 C7         -7.3717   -0.0989   51.6148 C.ar    1  ZINC000532153088   -0.1000
      8 C8         -6.4274    0.8331   51.2258 C.ar    1  ZINC000532153088   -0.1100
      9 C9         -6.4084    2.0842   51.8129 C.ar    1  ZINC000532153088   -0.1200
     10 C10        -7.3340    2.4039   52.7890 C.ar    1  ZINC000532153088   -0.1000
     11 C11        -8.2806    1.4736   53.1749 C.ar    1  ZINC000532153088   -0.1100
     12 C12        -9.2895    1.8220   54.2388 C.3     1  ZINC000532153088    0.1600
     13 N13        -8.7199    1.5481   55.5604 N.am    1  ZINC000532153088   -0.7300
     14 C14        -9.4802    1.6890   56.6643 C.2     1  ZINC000532153088    0.5100
     15 O15       -10.6354    2.0439   56.5636 O.2     1  ZINC000532153088   -0.5000
     16 C16        -8.8947    1.4054   58.0237 C.3     1  ZINC000532153088    0.0300
     17 N17        -9.5979    0.2682   58.6321 N.3     1  ZINC000532153088   -0.4800
     18 C18        -8.7550   -0.9349   58.6285 C.3     1  ZINC000532153088    0.1000
     19 C19        -9.5935   -2.1346   58.2701 C.ar    1  ZINC000532153088   -0.1300
     20 C20       -10.5694   -2.0294   57.2974 C.ar    1  ZINC000532153088   -0.0600
     21 C21       -11.3390   -3.1292   56.9671 C.ar    1  ZINC000532153088   -0.1700
     22 C22       -11.1328   -4.3375   57.6108 C.ar    1  ZINC000532153088    0.1300
     23 F23       -11.8847   -5.4124   57.2875 F       1  ZINC000532153088   -0.1300
     24 C24       -10.1554   -4.4441   58.5854 C.ar    1  ZINC000532153088   -0.2000
     25 C25        -9.3819   -3.3438   58.9114 C.ar    1  ZINC000532153088    0.1600
     26 F26        -8.4277   -3.4463   59.8623 F       1  ZINC000532153088   -0.1100
     27 C27       -10.0457    0.5931   59.9929 C.3     1  ZINC000532153088    0.0200
     28 C28       -11.3435    1.3903   60.1380 C.3     1  ZINC000532153088   -0.2200
     29 C29       -11.3135   -0.0952   60.5027 C.3     1  ZINC000532153088   -0.1700
     30 H30       -13.7866   -1.3812   52.5380 H       1  ZINC000532153088    0.0700
     31 H31       -13.0678    0.2465   52.4942 H       1  ZINC000532153088    0.0600
     32 H32       -12.9027   -0.8373   51.0919 H       1  ZINC000532153088    0.0700
     33 H33       -11.6856   -1.3004   53.8526 H       1  ZINC000532153088    0.0600
     34 H34       -11.4293   -2.8500   51.2353 H       1  ZINC000532153088    0.0600
     35 H35       -10.5448   -3.2000   52.7398 H       1  ZINC000532153088    0.0600
     36 H36       -12.3131   -3.3939   52.6814 H       1  ZINC000532153088    0.0700
     37 H37        -9.5140   -0.6974   54.0843 H       1  ZINC000532153088    0.0600
     38 H38        -8.9557   -1.7984   52.8019 H       1  ZINC000532153088    0.0600
     39 H39        -7.3865   -1.0764   51.1560 H       1  ZINC000532153088    0.1300
     40 H40        -5.7044    0.5834   50.4633 H       1  ZINC000532153088    0.1200
     41 H41        -5.6705    2.8120   51.5095 H       1  ZINC000532153088    0.1300
     42 H42        -7.3190    3.3813   53.2480 H       1  ZINC000532153088    0.1300
     43 H43        -9.5448    2.8792   54.1652 H       1  ZINC000532153088    0.0800
     44 H44       -10.1878    1.2207   54.0986 H       1  ZINC000532153088    0.0800
     45 H45        -7.7955    1.2653   55.6409 H       1  ZINC000532153088    0.4000
     46 H46        -7.8365    1.1653   57.9206 H       1  ZINC000532153088    0.0700
     47 H47        -9.0077    2.2843   58.6584 H       1  ZINC000532153088    0.1100
     48 H48        -7.9570   -0.8173   57.8954 H       1  ZINC000532153088    0.0900
     49 H49        -8.3210   -1.0775   59.6183 H       1  ZINC000532153088    0.0500
     50 H50       -10.7313   -1.0872   56.7950 H       1  ZINC000532153088    0.1400
     51 H51       -12.1017   -3.0458   56.2071 H       1  ZINC000532153088    0.1400
     52 H52        -9.9937   -5.3863   59.0880 H       1  ZINC000532153088    0.1500
     53 H53        -9.2527    0.7861   60.7153 H       1  ZINC000532153088    0.1200
     54 H54       -11.4045    2.1083   60.9560 H       1  ZINC000532153088    0.1000
     55 H55       -11.8651    1.6738   59.2237 H       1  ZINC000532153088    0.1000
     56 H56       -11.8153   -0.7892   59.8282 H       1  ZINC000532153088    0.1000
     57 H57       -11.3547   -0.3547   61.5606 H       1  ZINC000532153088    0.1000
@<TRIPOS>BOND
     1     1     2    1
     2     1    30    1
     3     1    31    1
     4     1    32    1
     5     2     3    1
     6     2     4    1
     7     2    33    1
     8     3    34    1
     9     3    35    1
    10     3    36    1
    11     4     5    1
    12     5     6    1
    13     5    37    1
    14     5    38    1
    15     6    11   ar
    16     6     7   ar
    17     7     8   ar
    18     7    39    1
    19     8     9   ar
    20     8    40    1
    21     9    10   ar
    22     9    41    1
    23    10    11   ar
    24    10    42    1
    25    11    12    1
    26    12    13    1
    27    12    43    1
    28    12    44    1
    29    13    14   am
    30    13    45    1
    31    14    15    2
    32    14    16    1
    33    16    17    1
    34    16    46    1
    35    16    47    1
    36    17    18    1
    37    17    27    1
    38    18    19    1
    39    18    48    1
    40    18    49    1
    41    19    25   ar
    42    19    20   ar
    43    20    21   ar
    44    20    50    1
    45    21    22   ar
    46    21    51    1
    47    22    23    1
    48    22    24   ar
    49    24    25   ar
    50    24    52    1
    51    25    26    1
    52    27    29    1
    53    27    28    1
    54    27    53    1
    55    28    29    1
    56    28    54    1
    57    28    55    1
    58    29    56    1
    59    29    57    1
@<TRIPOS>SUBSTRUCTURE
     1 ZINC000532153088        1 TEMP              0 ****  ****    0 ROOT


##########                                Name:    ZINC000740930783
##########                DOCK_Rotatable_Bonds:                  11
##########                         Heavy_Atoms:                  27
##########                    Molecular_Weight:             413.257
##########                DOCK_Rotatable_Bonds:                  11
##########                       Formal_Charge:          -0.0100004
##########                     HBond_Acceptors:                   9
##########                        HBond_Donors:                   4
##########                         Heavy_Atoms:                  27
##########                          Grid_Score:          -34.826717
##########                     Grid_vdw_energy:          -32.831566
##########                      Grid_es_energy:           -1.995152
##########           Internal_energy_repulsive:            9.455352

@<TRIPOS>MOLECULE
ZINC000740930783
 45 46 1 0 0
SMALL
USER_CHARGES


@<TRIPOS>ATOM
      1 C1        -12.6226    0.1684   59.7522 C.3     1  ZINC000740930783    0.0200
      2 O2        -12.7386   -1.2342   60.0000 O.3     1  ZINC000740930783   -0.3000
      3 C3        -12.0566   -2.0666   59.1684 C.ar    1  ZINC000740930783    0.1200
      4 C4        -12.5610   -2.3563   57.9155 C.ar    1  ZINC000740930783   -0.1400
      5 C5        -11.8578   -3.2116   57.0629 C.ar    1  ZINC000740930783   -0.0800
      6 C6        -12.3926   -3.5239   55.7229 C.2     1  ZINC000740930783    0.5600
      7 O7        -13.0877   -4.5080   55.5601 O.2     1  ZINC000740930783   -0.5300
      8 N8        -12.1102   -2.7182   54.6801 N.am    1  ZINC000740930783   -0.7200
      9 C9        -12.6395   -3.0291   53.3498 C.3     1  ZINC000740930783    0.0900
     10 C10       -11.6906   -2.4805   52.2823 C.3     1  ZINC000740930783    0.1400
     11 H11       -11.9158   -2.9453   51.3225 H       1  ZINC000740930783    0.1200
     12 O12       -10.3409   -2.7739   52.6487 O.3     1  ZINC000740930783   -0.5500
     13 C13       -11.8680   -0.9881   52.1716 C.ar    1  ZINC000740930783   -0.1100
     14 C14       -11.0156   -0.1386   52.8509 C.ar    1  ZINC000740930783   -0.1000
     15 C15       -11.1781    1.2307   52.7494 C.ar    1  ZINC000740930783   -0.1100
     16 C16       -12.1936    1.7506   51.9691 C.ar    1  ZINC000740930783   -0.1000
     17 C17       -13.0470    0.9018   51.2892 C.ar    1  ZINC000740930783   -0.1100
     18 C18       -12.8809   -0.4681   51.3854 C.ar    1  ZINC000740930783   -0.0300
     19 Cl19      -13.9521   -1.5347   50.5318 Cl      1  ZINC000740930783   -0.0600
     20 C20       -10.6477   -3.7701   57.4809 C.ar    1  ZINC000740930783   -0.1000
     21 C21       -10.1493   -3.4768   58.7332 C.ar    1  ZINC000740930783   -0.0200
     22 Cl22       -8.6449   -4.1711   59.2512 Cl      1  ZINC000740930783   -0.0300
     23 C23       -10.8459   -2.6226   59.5782 C.ar    1  ZINC000740930783    0.0900
     24 O24       -10.3514   -2.3365   60.8104 O.3     1  ZINC000740930783   -0.2900
     25 C25        -9.3213   -1.3488   60.8829 C.3     1  ZINC000740930783    0.0400
     26 C26        -9.3695   -0.6704   62.2278 C.2     1  ZINC000740930783    0.5200
     27 N27        -8.2474   -0.5569   62.9658 N.am    1  ZINC000740930783   -0.8500
     28 O28       -10.4178   -0.2268   62.6460 O.2     1  ZINC000740930783   -0.5100
     29 H29       -11.5772    0.4664   59.8324 H       1  ZINC000740930783    0.0600
     30 H30       -12.9881    0.3918   58.7499 H       1  ZINC000740930783    0.0600
     31 H31       -13.2141    0.7170   60.4852 H       1  ZINC000740930783    0.1100
     32 H32       -13.4971   -1.9232   57.5957 H       1  ZINC000740930783    0.1600
     33 H33       -11.5565   -1.9324   54.8103 H       1  ZINC000740930783    0.4100
     34 H34       -12.7272   -4.1097   53.2372 H       1  ZINC000740930783    0.0900
     35 H35       -13.6215   -2.5707   53.2333 H       1  ZINC000740930783    0.0800
     36 H36        -9.9375   -2.1122   53.2271 H       1  ZINC000740930783    0.3800
     37 H37       -10.2224   -0.5443   53.4613 H       1  ZINC000740930783    0.1300
     38 H38       -10.5118    1.8943   53.2805 H       1  ZINC000740930783    0.1300
     39 H39       -12.3207    2.8204   51.8908 H       1  ZINC000740930783    0.1400
     40 H40       -13.8404    1.3083   50.6795 H       1  ZINC000740930783    0.1400
     41 H41       -10.1025   -4.4316   56.8240 H       1  ZINC000740930783    0.1500
     42 H42        -8.3502   -1.8261   60.7513 H       1  ZINC000740930783    0.0900
     43 H43        -9.4718   -0.6085   60.0970 H       1  ZINC000740930783    0.0900
     44 H44        -8.2781   -0.1193   63.8310 H       1  ZINC000740930783    0.4000
     45 H45        -7.4092   -0.9129   62.6319 H       1  ZINC000740930783    0.4100
@<TRIPOS>BOND
     1     1     2    1
     2     1    29    1
     3     1    30    1
     4     1    31    1
     5     2     3    1
     6     3    23   ar
     7     3     4   ar
     8     4     5   ar
     9     4    32    1
    10     5     6    1
    11     5    20   ar
    12     6     7    2
    13     6     8   am
    14     8     9    1
    15     8    33    1
    16     9    10    1
    17     9    34    1
    18     9    35    1
    19    10    11    1
    20    10    12    1
    21    10    13    1
    22    12    36    1
    23    13    18   ar
    24    13    14   ar
    25    14    15   ar
    26    14    37    1
    27    15    16   ar
    28    15    38    1
    29    16    17   ar
    30    16    39    1
    31    17    18   ar
    32    17    40    1
    33    18    19    1
    34    20    21   ar
    35    20    41    1
    36    21    22    1
    37    21    23   ar
    38    23    24    1
    39    24    25    1
    40    25    26    1
    41    25    42    1
    42    25    43    1
    43    26    27   am
    44    26    28    2
    45    27    44    1
    46    27    45    1
@<TRIPOS>SUBSTRUCTURE
     1 ZINC000740930783        1 TEMP              0 ****  ****    0 ROOT


##########                                Name:    ZINC000062882109
##########                DOCK_Rotatable_Bonds:                   8
##########                         Heavy_Atoms:                  31
##########                    Molecular_Weight:             424.497
##########                DOCK_Rotatable_Bonds:                   8
##########                       Formal_Charge:           0.0299993
##########                     HBond_Acceptors:                   7
##########                        HBond_Donors:                   1
##########                         Heavy_Atoms:                  31
##########                          Grid_Score:          -34.816914
##########                     Grid_vdw_energy:          -32.178112
##########                      Grid_es_energy:           -2.638801
##########           Internal_energy_repulsive:          188.517746

@<TRIPOS>MOLECULE
ZINC000062882109
 59 61 1 0 0
SMALL
USER_CHARGES


@<TRIPOS>ATOM
      1 C1        -16.9885   -1.7224   58.2208 C.3     1  ZINC000062882109   -0.2000
      2 C2        -15.9692   -1.0315   59.0894 C.2     1  ZINC000062882109    0.3900
      3 O3        -16.2705   -0.0245   59.6940 O.2     1  ZINC000062882109   -0.4500
      4 C4        -14.6077   -1.5790   59.2041 C.ar    1  ZINC000062882109   -0.1300
      5 C5        -14.2476   -2.7220   58.4834 C.ar    1  ZINC000062882109   -0.1100
      6 C6        -12.9706   -3.2315   58.5941 C.ar    1  ZINC000062882109   -0.0900
      7 C7        -12.0440   -2.6160   59.4157 C.ar    1  ZINC000062882109   -0.1800
      8 C8        -12.3915   -1.4805   60.1362 C.ar    1  ZINC000062882109    0.1200
      9 O9        -11.4757   -0.8809   60.9418 O.3     1  ZINC000062882109   -0.2800
     10 C10       -10.1231   -1.3285   60.8318 C.3     1  ZINC000062882109    0.0700
     11 H11       -10.0821   -2.4052   60.9963 H       1  ZINC000062882109    0.1000
     12 C12        -9.2643   -0.6192   61.8807 C.3     1  ZINC000062882109   -0.1800
     13 C13        -9.5992   -1.0103   59.4550 C.2     1  ZINC000062882109    0.5200
     14 O14        -8.8900   -1.8065   58.8769 O.2     1  ZINC000062882109   -0.4900
     15 N15        -9.9186    0.1592   58.8661 N.am    1  ZINC000062882109   -0.6600
     16 C16        -9.4316    0.4551   57.5862 C.ar    1  ZINC000062882109    0.1400
     17 C17        -8.3229    1.2773   57.4374 C.ar    1  ZINC000062882109   -0.1000
     18 C18        -7.8405    1.5729   56.1767 C.ar    1  ZINC000062882109   -0.1100
     19 C19        -8.4621    1.0495   55.0529 C.ar    1  ZINC000062882109    0.0800
     20 O20        -7.9830    1.3549   53.8173 O.3     1  ZINC000062882109   -0.3100
     21 C21        -8.3354    0.4909   52.7343 C.3     1  ZINC000062882109    0.0500
     22 C22        -9.8539    0.2654   52.7549 C.3     1  ZINC000062882109    0.0400
     23 N23       -10.2001   -0.3136   54.0642 N.am    1  ZINC000062882109   -0.5500
     24 C24       -11.0880   -1.3223   54.1678 C.2     1  ZINC000062882109    0.5300
     25 O25       -11.3578   -1.7834   55.2567 O.2     1  ZINC000062882109   -0.5100
     26 C26       -11.7457   -1.8772   52.9305 C.3     1  ZINC000062882109   -0.0800
     27 C27       -12.8227   -2.8862   53.3343 C.3     1  ZINC000062882109   -0.1300
     28 C28       -12.3872   -0.7361   52.1386 C.3     1  ZINC000062882109   -0.1600
     29 C29       -10.6949   -2.5726   52.0627 C.3     1  ZINC000062882109   -0.1500
     30 C30        -9.5721    0.2218   55.2019 C.ar    1  ZINC000062882109    0.1000
     31 C31       -10.0538   -0.0781   56.4651 C.ar    1  ZINC000062882109   -0.1400
     32 C32       -13.6674   -0.9554   60.0295 C.ar    1  ZINC000062882109   -0.0900
     33 H33       -17.9305   -1.1755   58.2609 H       1  ZINC000062882109    0.0900
     34 H34       -16.6291   -1.7520   57.1922 H       1  ZINC000062882109    0.1000
     35 H35       -17.1432   -2.7395   58.5810 H       1  ZINC000062882109    0.1000
     36 H36       -14.9687   -3.2056   57.8412 H       1  ZINC000062882109    0.1400
     37 H37       -12.6934   -4.1145   58.0375 H       1  ZINC000062882109    0.1300
     38 H38       -11.0459   -3.0202   59.4977 H       1  ZINC000062882109    0.1300
     39 H39        -9.6433   -0.8494   62.8765 H       1  ZINC000062882109    0.0800
     40 H40        -8.2325   -0.9607   61.7968 H       1  ZINC000062882109    0.0800
     41 H41        -9.3052    0.4575   61.7163 H       1  ZINC000062882109    0.0800
     42 H42       -10.4858    0.7960   59.3284 H       1  ZINC000062882109    0.4100
     43 H43        -7.8359    1.6873   58.3098 H       1  ZINC000062882109    0.1400
     44 H44        -6.9779    2.2132   56.0663 H       1  ZINC000062882109    0.1400
     45 H45        -8.0474    0.9528   51.7900 H       1  ZINC000062882109    0.1300
     46 H46        -7.8226   -0.4643   52.8473 H       1  ZINC000062882109    0.0700
     47 H47       -10.3708    1.2158   52.6224 H       1  ZINC000062882109    0.0900
     48 H48       -10.1362   -0.4241   51.9592 H       1  ZINC000062882109    0.1300
     49 H49       -13.5712   -2.3907   53.9526 H       1  ZINC000062882109    0.0600
     50 H50       -13.2983   -3.2875   52.4394 H       1  ZINC000062882109    0.0700
     51 H51       -12.3656   -3.6991   53.8985 H       1  ZINC000062882109    0.0700
     52 H52       -11.6200   -0.0173   51.8509 H       1  ZINC000062882109    0.0700
     53 H53       -12.8628   -1.1374   51.2437 H       1  ZINC000062882109    0.0800
     54 H54       -13.1357   -0.2406   52.7568 H       1  ZINC000062882109    0.0600
     55 H55       -10.3809   -3.4986   52.5444 H       1  ZINC000062882109    0.0700
     56 H56       -11.1222   -2.7981   51.0856 H       1  ZINC000062882109    0.0800
     57 H57        -9.8332   -1.9165   51.9398 H       1  ZINC000062882109    0.0700
     58 H58       -10.9140   -0.7213   56.5779 H       1  ZINC000062882109    0.1800
     59 H59       -13.9385   -0.0723   60.5890 H       1  ZINC000062882109    0.1400
@<TRIPOS>BOND
     1     1     2    1
     2     1    33    1
     3     1    34    1
     4     1    35    1
     5     2     3    2
     6     2     4    1
     7     4    32   ar
     8     4     5   ar
     9     5     6   ar
    10     5    36    1
    11     6     7   ar
    12     6    37    1
    13     7     8   ar
    14     7    38    1
    15     8     9    1
    16     8    32   ar
    17     9    10    1
    18    10    11    1
    19    10    12    1
    20    10    13    1
    21    12    39    1
    22    12    40    1
    23    12    41    1
    24    13    14    2
    25    13    15   am
    26    15    16    1
    27    15    42    1
    28    16    31   ar
    29    16    17   ar
    30    17    18   ar
    31    17    43    1
    32    18    19   ar
    33    18    44    1
    34    19    30   ar
    35    19    20    1
    36    20    21    1
    37    21    22    1
    38    21    45    1
    39    21    46    1
    40    22    23    1
    41    22    47    1
    42    22    48    1
    43    23    24   am
    44    23    30    1
    45    24    25    2
    46    24    26    1
    47    26    27    1
    48    26    28    1
    49    26    29    1
    50    27    49    1
    51    27    50    1
    52    27    51    1
    53    28    52    1
    54    28    53    1
    55    28    54    1
    56    29    55    1
    57    29    56    1
    58    29    57    1
    59    30    31   ar
    60    31    58    1
    61    32    59    1
@<TRIPOS>SUBSTRUCTURE
     1 ZINC000062882109        1 TEMP              0 ****  ****    0 ROOT


##########                                Name:    ZINC000301324012
##########                DOCK_Rotatable_Bonds:                   7
##########                         Heavy_Atoms:                  28
##########                    Molecular_Weight:               415.9
##########                DOCK_Rotatable_Bonds:                   7
##########                       Formal_Charge:          -0.0100002
##########                     HBond_Acceptors:                   8
##########                        HBond_Donors:                   2
##########                         Heavy_Atoms:                  28
##########                          Grid_Score:          -34.803383
##########                     Grid_vdw_energy:          -29.865131
##########                      Grid_es_energy:           -4.938251
##########           Internal_energy_repulsive:           12.694553

@<TRIPOS>MOLECULE
ZINC000301324012
 46 48 1 0 0
SMALL
USER_CHARGES


@<TRIPOS>ATOM
      1 C1        -12.0328    1.5998   63.4272 C.3     1  ZINC000301324012   -0.1600
      2 C2        -13.3919    1.0068   63.0501 C.3     1  ZINC000301324012    0.2000
      3 H3        -14.0286    1.7902   62.6390 H       1  ZINC000301324012    0.1100
      4 N4        -13.2044   -0.0458   62.0485 N.am    1  ZINC000301324012   -0.7100
      5 C5        -14.1837   -0.3154   61.1628 C.2     1  ZINC000301324012    0.5500
      6 O6        -15.2221    0.3158   61.1939 O.2     1  ZINC000301324012   -0.5300
      7 C7        -13.9951   -1.3789   60.1532 C.ar    1  ZINC000301324012   -0.0700
      8 C8        -15.0967   -1.9111   59.4814 C.ar    1  ZINC000301324012   -0.1100
      9 C9        -14.9138   -2.9029   58.5402 C.ar    1  ZINC000301324012   -0.0200
     10 C10       -13.6417   -3.3704   58.2618 C.ar    1  ZINC000301324012   -0.6600
     11 S11       -13.4169   -4.6377   57.0584 S.o2    1  ZINC000301324012    2.6900
     12 O12       -12.0166   -4.8634   56.9702 O.2     1  ZINC000301324012   -0.9400
     13 O13       -14.3506   -5.6612   57.3744 O.2     1  ZINC000301324012   -0.9400
     14 N14       -13.8830   -4.0143   55.5968 N.am    1  ZINC000301324012   -1.0500
     15 C15       -13.2346   -2.8904   55.0778 C.ar    1  ZINC000301324012    0.1600
     16 C16       -13.5575   -1.6232   55.5446 C.ar    1  ZINC000301324012   -0.1600
     17 C17       -12.9147   -0.5142   55.0295 C.ar    1  ZINC000301324012   -0.0800
     18 C18       -11.9508   -0.6643   54.0498 C.ar    1  ZINC000301324012   -0.1200
     19 C19       -11.6260   -1.9248   53.5820 C.ar    1  ZINC000301324012   -0.0900
     20 C20       -12.2605   -3.0389   54.0970 C.ar    1  ZINC000301324012   -0.0600
     21 Cl21      -11.8526   -4.6207   53.5095 Cl      1  ZINC000301324012   -0.0600
     22 C22       -12.5453   -2.8468   58.9237 C.ar    1  ZINC000301324012   -0.0200
     23 C23       -12.7140   -1.8510   59.8634 C.ar    1  ZINC000301324012   -0.0800
     24 C24       -14.0430    0.4226   64.2772 C.ar    1  ZINC000301324012    0.1200
     25 C25       -14.0904    1.1627   65.4431 C.ar    1  ZINC000301324012   -0.1600
     26 C26       -14.6922    0.6160   66.5665 C.ar    1  ZINC000301324012   -0.0700
     27 C27       -15.2259   -0.6601   66.4740 C.ar    1  ZINC000301324012   -0.1700
     28 C28       -15.1410   -1.3403   65.2738 C.ar    1  ZINC000301324012    0.1100
     29 N29       -14.5657   -0.7871   64.2242 N.ar    1  ZINC000301324012   -0.4900
     30 H30       -12.1723    2.3830   64.1724 H       1  ZINC000301324012    0.0700
     31 H31       -11.3960    0.8165   63.8382 H       1  ZINC000301324012    0.0600
     32 H32       -11.5619    2.0224   62.5397 H       1  ZINC000301324012    0.0700
     33 H33       -12.3754   -0.5488   62.0230 H       1  ZINC000301324012    0.4100
     34 H34       -16.0904   -1.5475   59.6985 H       1  ZINC000301324012    0.1400
     35 H35       -15.7654   -3.3155   58.0197 H       1  ZINC000301324012    0.1500
     36 H36       -14.6062   -4.4292   55.1011 H       1  ZINC000301324012    0.4300
     37 H37       -14.3108   -1.5047   56.3094 H       1  ZINC000301324012    0.1700
     38 H38       -13.1657    0.4716   55.3924 H       1  ZINC000301324012    0.1400
     39 H39       -11.4505    0.2047   53.6486 H       1  ZINC000301324012    0.1400
     40 H40       -10.8726   -2.0385   52.8166 H       1  ZINC000301324012    0.1400
     41 H41       -11.5549   -3.2158   58.7015 H       1  ZINC000301324012    0.1500
     42 H42       -11.8573   -1.4428   60.3792 H       1  ZINC000301324012    0.1500
     43 H43       -13.6638    2.1542   65.4792 H       1  ZINC000301324012    0.1400
     44 H44       -14.7436    1.1711   67.4915 H       1  ZINC000301324012    0.1400
     45 H45       -15.7016   -1.1171   67.3292 H       1  ZINC000301324012    0.1400
     46 H46       -15.5540   -2.3350   65.1937 H       1  ZINC000301324012    0.1600
@<TRIPOS>BOND
     1     1     2    1
     2     1    30    1
     3     1    31    1
     4     1    32    1
     5     2     3    1
     6     2     4    1
     7     2    24    1
     8     4     5   am
     9     4    33    1
    10     5     6    2
    11     5     7    1
    12     7    23   ar
    13     7     8   ar
    14     8     9   ar
    15     8    34    1
    16     9    10   ar
    17     9    35    1
    18    10    11    1
    19    10    22   ar
    20    11    12    2
    21    11    13    2
    22    11    14   am
    23    14    15    1
    24    14    36    1
    25    15    20   ar
    26    15    16   ar
    27    16    17   ar
    28    16    37    1
    29    17    18   ar
    30    17    38    1
    31    18    19   ar
    32    18    39    1
    33    19    20   ar
    34    19    40    1
    35    20    21    1
    36    22    23   ar
    37    22    41    1
    38    23    42    1
    39    24    29   ar
    40    24    25   ar
    41    25    26   ar
    42    25    43    1
    43    26    27   ar
    44    26    44    1
    45    27    28   ar
    46    27    45    1
    47    28    29   ar
    48    28    46    1
@<TRIPOS>SUBSTRUCTURE
     1 ZINC000301324012        1 TEMP              0 ****  ****    0 ROOT


##########                                Name:    ZINC001296589646
##########                DOCK_Rotatable_Bonds:                   8
##########                         Heavy_Atoms:                  29
##########                    Molecular_Weight:             398.548
##########                DOCK_Rotatable_Bonds:                   8
##########                       Formal_Charge:          -0.0200008
##########                     HBond_Acceptors:                   6
##########                        HBond_Donors:                   0
##########                         Heavy_Atoms:                  29
##########                          Grid_Score:          -34.792320
##########                     Grid_vdw_energy:          -34.237106
##########                      Grid_es_energy:           -0.555213
##########           Internal_energy_repulsive:           23.038496

@<TRIPOS>MOLECULE
ZINC001296589646
 63 66 1 0 0
SMALL
USER_CHARGES


@<TRIPOS>ATOM
      1 C1        -10.0282    2.9391   59.4600 C.3     1  ZINC001296589646   -0.1500
      2 C2        -10.6085    2.0561   60.5666 C.3     1  ZINC001296589646    0.0500
      3 O3         -9.8058    0.8825   60.7097 O.3     1  ZINC001296589646   -0.3600
      4 C4        -10.3504   -0.0886   61.6054 C.3     1  ZINC001296589646    0.1800
      5 C5        -11.7771   -0.4098   61.2414 C.2     1  ZINC001296589646    0.1500
      6 N6        -12.8333   -0.1564   61.9610 N.2     1  ZINC001296589646   -0.2600
      7 N7        -13.8895   -0.5630   61.3517 N.2     1  ZINC001296589646   -0.3200
      8 C8        -13.5609   -1.1020   60.2014 C.2     1  ZINC001296589646    0.3600
      9 N9        -14.4291   -1.6499   59.2704 N.3     1  ZINC001296589646   -0.4300
     10 C10       -15.2631   -2.7155   59.8828 C.3     1  ZINC001296589646    0.0300
     11 C11       -16.4676   -2.8236   58.9144 C.3     1  ZINC001296589646   -0.1200
     12 C12       -16.7137   -1.3537   58.5033 C.3     1  ZINC001296589646   -0.1000
     13 H13       -17.5060   -0.9182   59.1119 H       1  ZINC001296589646    0.0800
     14 C14       -17.0784   -1.2711   57.0197 C.3     1  ZINC001296589646   -0.1400
     15 C15       -15.3787   -0.6331   58.7685 C.3     1  ZINC001296589646    0.0500
     16 N16       -12.2035   -1.0158   60.0923 N.pl3   1  ZINC001296589646   -0.4600
     17 C17       -11.3741   -1.4844   58.9793 C.3     1  ZINC001296589646    0.1000
     18 C18       -11.3167   -3.0133   58.9945 C.3     1  ZINC001296589646   -0.1300
     19 C19       -10.5789   -3.5083   57.7489 C.3     1  ZINC001296589646   -0.0500
     20 H20        -9.6445   -2.9584   57.6375 H       1  ZINC001296589646    0.0800
     21 C21       -10.2779   -5.0013   57.8940 C.3     1  ZINC001296589646   -0.1500
     22 C22       -11.4408   -3.2854   56.5329 C.ar    1  ZINC001296589646   -0.0800
     23 C23       -11.2333   -2.1777   55.7322 C.ar    1  ZINC001296589646   -0.1100
     24 C24       -12.0239   -1.9733   54.6169 C.ar    1  ZINC001296589646   -0.1200
     25 C25       -13.0218   -2.8766   54.3020 C.ar    1  ZINC001296589646   -0.1200
     26 C26       -13.2287   -3.9846   55.1021 C.ar    1  ZINC001296589646   -0.1200
     27 C27       -12.4353   -4.1914   56.2151 C.ar    1  ZINC001296589646   -0.1200
     28 C28       -10.2467    0.3971   63.0769 C.3     1  ZINC001296589646   -0.1400
     29 C29        -8.7988   -0.0300   63.4263 C.3     1  ZINC001296589646    0.0600
     30 O30        -8.6010   -1.2784   62.7437 O.3     1  ZINC001296589646   -0.3700
     31 C31        -9.4860   -1.3676   61.6209 C.3     1  ZINC001296589646    0.0400
     32 H32        -9.0434    3.2974   59.7600 H       1  ZINC001296589646    0.0600
     33 H33        -9.9396    2.3592   58.5414 H       1  ZINC001296589646    0.0700
     34 H34       -10.6882    3.7899   59.2904 H       1  ZINC001296589646    0.0700
     35 H35       -10.6152    2.6085   61.5063 H       1  ZINC001296589646    0.0500
     36 H36       -11.6274    1.7698   60.3063 H       1  ZINC001296589646    0.0600
     37 H37       -14.7157   -3.6573   59.9226 H       1  ZINC001296589646    0.0900
     38 H38       -15.5950   -2.4200   60.8781 H       1  ZINC001296589646    0.0600
     39 H39       -16.2108   -3.4293   58.0455 H       1  ZINC001296589646    0.0800
     40 H40       -17.3390   -3.2318   59.4266 H       1  ZINC001296589646    0.0800
     41 H41       -17.9987   -1.8271   56.8404 H       1  ZINC001296589646    0.0600
     42 H42       -17.2235   -0.2281   56.7387 H       1  ZINC001296589646    0.0600
     43 H43       -16.2731   -1.6996   56.4231 H       1  ZINC001296589646    0.0600
     44 H44       -15.5196    0.1455   59.5182 H       1  ZINC001296589646    0.0800
     45 H45       -15.0016   -0.1975   57.8432 H       1  ZINC001296589646    0.0900
     46 H46       -11.8055   -1.1463   58.0371 H       1  ZINC001296589646    0.1100
     47 H47       -10.3663   -1.0820   59.0825 H       1  ZINC001296589646    0.1000
     48 H48       -10.7880   -3.3482   59.8870 H       1  ZINC001296589646    0.0800
     49 H49       -12.3300   -3.4148   59.0003 H       1  ZINC001296589646    0.0700
     50 H50        -9.7524   -5.3540   57.0065 H       1  ZINC001296589646    0.0600
     51 H51        -9.6546   -5.1624   58.7734 H       1  ZINC001296589646    0.0600
     52 H52       -11.2125   -5.5512   58.0053 H       1  ZINC001296589646    0.0600
     53 H53       -10.4536   -1.4720   55.9782 H       1  ZINC001296589646    0.1200
     54 H54       -11.8622   -1.1076   53.9917 H       1  ZINC001296589646    0.1200
     55 H55       -13.6399   -2.7164   53.4310 H       1  ZINC001296589646    0.1200
     56 H56       -14.0085   -4.6902   54.8563 H       1  ZINC001296589646    0.1200
     57 H57       -12.5970   -5.0571   56.8402 H       1  ZINC001296589646    0.1200
     58 H58       -10.3638    1.4789   63.1427 H       1  ZINC001296589646    0.1000
     59 H59       -10.9709   -0.1138   63.7113 H       1  ZINC001296589646    0.1000
     60 H60        -8.0877    0.7141   63.0675 H       1  ZINC001296589646    0.0700
     61 H61        -8.6940   -0.1666   64.5026 H       1  ZINC001296589646    0.0900
     62 H62       -10.1251   -2.2447   61.7226 H       1  ZINC001296589646    0.1000
     63 H63        -8.9081   -1.4346   60.6992 H       1  ZINC001296589646    0.0800
@<TRIPOS>BOND
     1     1     2    1
     2     1    32    1
     3     1    33    1
     4     1    34    1
     5     2     3    1
     6     2    35    1
     7     2    36    1
     8     3     4    1
     9     4    31    1
    10     4     5    1
    11     4    28    1
    12     5    16    1
    13     5     6    2
    14     6     7    1
    15     7     8    2
    16     8     9    1
    17     8    16    1
    18     9    15    1
    19     9    10    1
    20    10    11    1
    21    10    37    1
    22    10    38    1
    23    11    12    1
    24    11    39    1
    25    11    40    1
    26    12    13    1
    27    12    14    1
    28    12    15    1
    29    14    41    1
    30    14    42    1
    31    14    43    1
    32    15    44    1
    33    15    45    1
    34    16    17    1
    35    17    18    1
    36    17    46    1
    37    17    47    1
    38    18    19    1
    39    18    48    1
    40    18    49    1
    41    19    20    1
    42    19    21    1
    43    19    22    1
    44    21    50    1
    45    21    51    1
    46    21    52    1
    47    22    27   ar
    48    22    23   ar
    49    23    24   ar
    50    23    53    1
    51    24    25   ar
    52    24    54    1
    53    25    26   ar
    54    25    55    1
    55    26    27   ar
    56    26    56    1
    57    27    57    1
    58    28    29    1
    59    28    58    1
    60    28    59    1
    61    29    30    1
    62    29    60    1
    63    29    61    1
    64    30    31    1
    65    31    62    1
    66    31    63    1
@<TRIPOS>SUBSTRUCTURE
     1 ZINC001296589646        1 TEMP              0 ****  ****    0 ROOT


##########                                Name:    ZINC001579482641
##########                DOCK_Rotatable_Bonds:                   5
##########                         Heavy_Atoms:                  26
##########                    Molecular_Weight:             355.359
##########                DOCK_Rotatable_Bonds:                   5
##########                       Formal_Charge:                0.05
##########                     HBond_Acceptors:                  11
##########                        HBond_Donors:                   1
##########                         Heavy_Atoms:                  26
##########                          Grid_Score:          -34.783806
##########                     Grid_vdw_energy:          -33.285973
##########                      Grid_es_energy:           -1.497834
##########           Internal_energy_repulsive:           15.810916

@<TRIPOS>MOLECULE
ZINC001579482641
 43 46 1 0 0
SMALL
USER_CHARGES


@<TRIPOS>ATOM
      1 C1        -13.0822    0.6559   64.0551 C.3     1  ZINC001579482641    0.0300
      2 O2        -12.8577   -0.2653   62.9554 O.3     1  ZINC001579482641   -0.3300
      3 C3        -13.8826   -0.4620   62.1033 C.2     1  ZINC001579482641    0.5300
      4 O4        -14.9910   -0.0491   62.3808 O.2     1  ZINC001579482641   -0.4900
      5 C5        -13.6587   -1.1798   60.8316 C.ar    1  ZINC001579482641    0.0900
      6 C6        -14.6902   -1.2593   59.8945 C.ar    1  ZINC001579482641   -0.0800
      7 C7        -14.4756   -1.9323   58.7055 C.ar    1  ZINC001579482641   -0.1200
      8 C8        -13.2280   -2.5110   58.4847 C.ar    1  ZINC001579482641    0.1100
      9 N9        -12.9690   -3.1956   57.3051 N.3     1  ZINC001579482641   -0.4600
     10 C10       -13.8787   -4.3600   57.1545 C.3     1  ZINC001579482641    0.0400
     11 C11       -13.8254   -4.6574   55.6349 C.3     1  ZINC001579482641   -0.1100
     12 C12       -13.7556   -3.2457   55.0086 C.3     1  ZINC001579482641   -0.0100
     13 H13       -14.7488   -2.9190   54.7006 H       1  ZINC001579482641    0.0900
     14 C14       -12.8158   -3.2421   53.8305 C.2     1  ZINC001579482641    0.1800
     15 N15       -11.7391   -3.9677   53.6977 N.2     1  ZINC001579482641   -0.2600
     16 N16       -11.1799   -3.7100   52.5688 N.2     1  ZINC001579482641   -0.2900
     17 C17       -11.8745   -2.8081   51.9301 C.2     1  ZINC001579482641    0.1500
     18 N18       -12.9352   -2.4892   52.7104 N.pl3   1  ZINC001579482641   -0.4800
     19 C19       -13.9920   -1.5206   52.4081 C.3     1  ZINC001579482641    0.0700
     20 C20       -13.2168   -2.3354   56.1277 C.3     1  ZINC001579482641    0.0600
     21 C21       -12.2350   -2.3921   59.4719 C.ar    1  ZINC001579482641    0.2300
     22 C22       -10.9013   -3.0032   59.2509 C.2     1  ZINC001579482641    0.2100
     23 N23       -10.6140   -3.9890   58.4239 N.2     1  ZINC001579482641   -0.2600
     24 N24        -9.3519   -4.2304   58.5217 N.pl3   1  ZINC001579482641   -0.2300
     25 N25        -8.8303   -3.4294   59.3839 N.2     1  ZINC001579482641   -0.0500
     26 N26        -9.7524   -2.6567   59.8491 N.2     1  ZINC001579482641   -0.2000
     27 N27       -12.4770   -1.7364   60.5925 N.ar    1  ZINC001579482641   -0.4000
     28 H28       -13.9079    0.2952   64.6685 H       1  ZINC001579482641    0.0700
     29 H29       -12.1800    0.7226   64.6631 H       1  ZINC001579482641    0.1100
     30 H30       -13.3272    1.6415   63.6592 H       1  ZINC001579482641    0.0700
     31 H31       -15.6467   -0.7999   60.0961 H       1  ZINC001579482641    0.1600
     32 H32       -15.2580   -2.0079   57.9649 H       1  ZINC001579482641    0.1600
     33 H33       -13.5110   -5.2120   57.7265 H       1  ZINC001579482641    0.1000
     34 H34       -14.8918   -4.0986   57.4602 H       1  ZINC001579482641    0.0600
     35 H35       -12.9348   -5.2344   55.3859 H       1  ZINC001579482641    0.1000
     36 H36       -14.7266   -5.1785   55.3121 H       1  ZINC001579482641    0.0800
     37 H37       -11.6478   -2.3956   50.9581 H       1  ZINC001579482641    0.2200
     38 H38       -14.8062   -2.0225   51.8854 H       1  ZINC001579482641    0.0800
     39 H39       -14.3671   -1.0904   53.3368 H       1  ZINC001579482641    0.0900
     40 H40       -13.5891   -0.7282   51.7774 H       1  ZINC001579482641    0.0900
     41 H41       -13.9555   -1.5727   56.3739 H       1  ZINC001579482641    0.0600
     42 H42       -12.2864   -1.8657   55.8087 H       1  ZINC001579482641    0.1000
     43 H43        -8.8703   -4.9096   58.0238 H       1  ZINC001579482641    0.4800
@<TRIPOS>BOND
     1     1     2    1
     2     1    28    1
     3     1    29    1
     4     1    30    1
     5     2     3    1
     6     3     4    2
     7     3     5    1
     8     5    27   ar
     9     5     6   ar
    10     6     7   ar
    11     6    31    1
    12     7     8   ar
    13     7    32    1
    14     8     9    1
    15     8    21   ar
    16     9    20    1
    17     9    10    1
    18    10    11    1
    19    10    33    1
    20    10    34    1
    21    11    12    1
    22    11    35    1
    23    11    36    1
    24    12    13    1
    25    12    14    1
    26    12    20    1
    27    14    18    1
    28    14    15    2
    29    15    16    1
    30    16    17    2
    31    17    18    1
    32    17    37    1
    33    18    19    1
    34    19    38    1
    35    19    39    1
    36    19    40    1
    37    20    41    1
    38    20    42    1
    39    21    22    1
    40    21    27   ar
    41    22    26    1
    42    22    23    2
    43    23    24    1
    44    24    25    1
    45    24    43    1
    46    25    26    2
@<TRIPOS>SUBSTRUCTURE
     1 ZINC001579482641        1 TEMP              0 ****  ****    0 ROOT


##########                                Name:    ZINC001078110631
##########                DOCK_Rotatable_Bonds:                   7
##########                         Heavy_Atoms:                  25
##########                    Molecular_Weight:             353.369
##########                DOCK_Rotatable_Bonds:                   7
##########                       Formal_Charge:           0.0100006
##########                     HBond_Acceptors:                   8
##########                        HBond_Donors:                   2
##########                         Heavy_Atoms:                  25
##########                          Grid_Score:          -34.767094
##########                     Grid_vdw_energy:          -33.927334
##########                      Grid_es_energy:           -0.839758
##########           Internal_energy_repulsive:            5.509722

@<TRIPOS>MOLECULE
ZINC001078110631
 46 48 1 0 0
SMALL
USER_CHARGES


@<TRIPOS>ATOM
      1 O1        -12.2350   -5.2602   56.9931 O.2     1  ZINC001078110631   -0.5100
      2 C2        -11.7084   -4.1643   56.9867 C.2     1  ZINC001078110631    0.5600
      3 N3        -11.7951   -3.3814   55.8930 N.am    1  ZINC001078110631   -0.7200
      4 C4        -12.5186   -3.8534   54.7098 C.3     1  ZINC001078110631    0.1500
      5 H5        -12.3878   -4.9289   54.5908 H       1  ZINC001078110631    0.1200
      6 C6        -12.0267   -3.1108   53.4489 C.3     1  ZINC001078110631    0.0300
      7 N7        -13.2500   -2.9146   52.6290 N.3     1  ZINC001078110631   -0.5000
      8 C8        -13.0671   -1.8224   51.6637 C.3     1  ZINC001078110631    0.0300
      9 C9        -14.3951   -1.5363   50.9598 C.3     1  ZINC001078110631    0.1300
     10 N10       -14.1788   -0.5634   49.8860 N.am    1  ZINC001078110631   -0.6200
     11 C11       -14.1462    0.8909   50.0805 C.3     1  ZINC001078110631    0.1000
     12 C12       -13.4745    1.4614   48.8117 C.3     1  ZINC001078110631   -0.1300
     13 C13       -13.7861    0.3630   47.7690 C.3     1  ZINC001078110631   -0.1600
     14 C14       -13.9793   -0.8883   48.5970 C.2     1  ZINC001078110631    0.5200
     15 O15       -13.9636   -2.0197   48.1603 O.2     1  ZINC001078110631   -0.5200
     16 C16       -14.3038   -2.5780   53.6205 C.3     1  ZINC001078110631    0.0000
     17 C17       -14.0171   -3.5053   54.8239 C.3     1  ZINC001078110631    0.1000
     18 H18       -14.2139   -2.9826   55.7600 H       1  ZINC001078110631    0.0700
     19 O19       -14.8142   -4.6884   54.7399 O.3     1  ZINC001078110631   -0.5500
     20 C20       -10.9796   -3.6888   58.1786 C.ar    1  ZINC001078110631   -0.1900
     21 C21        -9.7898   -4.3091   58.5668 C.ar    1  ZINC001078110631   -0.0300
     22 C22        -9.1133   -3.8613   59.6805 C.ar    1  ZINC001078110631   -0.1700
     23 C23        -9.6104   -2.7963   60.4172 C.ar    1  ZINC001078110631    0.1600
     24 F24        -8.9416   -2.3628   61.5081 F       1  ZINC001078110631   -0.1200
     25 C25       -10.7895   -2.1751   60.0391 C.ar    1  ZINC001078110631   -0.2000
     26 C26       -11.4747   -2.6111   58.9213 C.ar    1  ZINC001078110631    0.2000
     27 F27       -12.6245   -2.0053   58.5525 F       1  ZINC001078110631   -0.1000
     28 H28       -11.3785   -2.5054   55.8894 H       1  ZINC001078110631    0.4000
     29 H29       -11.5923   -2.1485   53.7198 H       1  ZINC001078110631    0.0500
     30 H30       -11.3005   -3.7183   52.9090 H       1  ZINC001078110631    0.1000
     31 H31       -12.7331   -0.9268   52.1875 H       1  ZINC001078110631    0.0400
     32 H32       -12.3194   -2.1115   50.9253 H       1  ZINC001078110631    0.0800
     33 H33       -14.7895   -2.4609   50.5383 H       1  ZINC001078110631    0.0900
     34 H34       -15.1075   -1.1317   51.6786 H       1  ZINC001078110631    0.0800
     35 H35       -15.1591    1.2811   50.1789 H       1  ZINC001078110631    0.0700
     36 H36       -13.5576    1.1403   50.9634 H       1  ZINC001078110631    0.0800
     37 H37       -13.9261    2.4110   48.5247 H       1  ZINC001078110631    0.0900
     38 H38       -12.3994    1.5698   48.9547 H       1  ZINC001078110631    0.0800
     39 H39       -14.6957    0.6055   47.2195 H       1  ZINC001078110631    0.1100
     40 H40       -12.9473    0.2381   47.0841 H       1  ZINC001078110631    0.1000
     41 H41       -14.2257   -1.5324   53.9181 H       1  ZINC001078110631    0.0600
     42 H42       -15.2922   -2.7844   53.2097 H       1  ZINC001078110631    0.0900
     43 H43       -14.5780   -5.2704   54.0047 H       1  ZINC001078110631    0.3800
     44 H44        -9.4007   -5.1386   57.9951 H       1  ZINC001078110631    0.1500
     45 H45        -8.1935   -4.3411   59.9808 H       1  ZINC001078110631    0.1500
     46 H46       -11.1718   -1.3464   60.6167 H       1  ZINC001078110631    0.1600
@<TRIPOS>BOND
     1     1     2    2
     2     2     3   am
     3     2    20    1
     4     3     4    1
     5     3    28    1
     6     4     5    1
     7     4    17    1
     8     4     6    1
     9     6     7    1
    10     6    29    1
    11     6    30    1
    12     7     8    1
    13     7    16    1
    14     8     9    1
    15     8    31    1
    16     8    32    1
    17     9    10    1
    18     9    33    1
    19     9    34    1
    20    10    14   am
    21    10    11    1
    22    11    12    1
    23    11    35    1
    24    11    36    1
    25    12    13    1
    26    12    37    1
    27    12    38    1
    28    13    14    1
    29    13    39    1
    30    13    40    1
    31    14    15    2
    32    16    17    1
    33    16    41    1
    34    16    42    1
    35    17    18    1
    36    17    19    1
    37    19    43    1
    38    20    26   ar
    39    20    21   ar
    40    21    22   ar
    41    21    44    1
    42    22    23   ar
    43    22    45    1
    44    23    24    1
    45    23    25   ar
    46    25    26   ar
    47    25    46    1
    48    26    27    1
@<TRIPOS>SUBSTRUCTURE
     1 ZINC001078110631        1 TEMP              0 ****  ****    0 ROOT


##########                                Name:    ZINC000031496632
##########                DOCK_Rotatable_Bonds:                   8
##########                         Heavy_Atoms:                  30
##########                    Molecular_Weight:             423.539
##########                DOCK_Rotatable_Bonds:                   8
##########                       Formal_Charge:          -0.0100009
##########                     HBond_Acceptors:                   8
##########                        HBond_Donors:                   1
##########                         Heavy_Atoms:                  30
##########                          Grid_Score:          -34.761665
##########                     Grid_vdw_energy:          -31.464731
##########                      Grid_es_energy:           -3.296933
##########           Internal_energy_repulsive:           27.925732

@<TRIPOS>MOLECULE
ZINC000031496632
 55 58 1 0 0
SMALL
USER_CHARGES


@<TRIPOS>ATOM
      1 C1        -13.3938   -3.5645   54.7316 C.3     1  ZINC000031496632   -0.1600
      2 C2        -13.9217   -3.8429   56.1404 C.3     1  ZINC000031496632    0.1600
      3 C3        -13.8486   -5.3445   56.4249 C.3     1  ZINC000031496632   -0.1600
      4 N4        -13.1058   -3.1202   57.1193 N.pl3   1  ZINC000031496632   -0.3900
      5 N5        -11.8376   -2.5832   56.8779 N.2     1  ZINC000031496632   -0.2300
      6 C6        -11.3843   -2.0049   57.9532 C.2     1  ZINC000031496632    0.0800
      7 C7        -12.3955   -2.1507   58.9945 C.ar    1  ZINC000031496632   -0.2100
      8 C8        -12.4826   -1.7488   60.3323 C.ar    1  ZINC000031496632    0.0100
      9 C9        -13.6313   -2.0746   61.0363 C.ar    1  ZINC000031496632    0.0500
     10 N10       -13.7699   -1.6960   62.3780 N.am    1  ZINC000031496632   -0.6600
     11 C11       -14.4995   -0.6095   62.6998 C.2     1  ZINC000031496632    0.5500
     12 O12       -15.0376    0.0425   61.8253 O.2     1  ZINC000031496632   -0.4900
     13 C13       -14.6453   -0.2113   64.1111 C.ar    1  ZINC000031496632   -0.1300
     14 C14       -15.1355   -1.1211   65.0512 C.ar    1  ZINC000031496632   -0.0600
     15 C15       -15.2695   -0.7426   66.3692 C.ar    1  ZINC000031496632   -0.1400
     16 C16       -14.9209    0.5378   66.7695 C.ar    1  ZINC000031496632   -0.0600
     17 C17       -14.4359    1.4485   65.8538 C.ar    1  ZINC000031496632   -0.1500
     18 C18       -14.2870    1.0837   64.5209 C.ar    1  ZINC000031496632   -0.0600
     19 S19       -13.6672    2.2441   63.3487 S.3     1  ZINC000031496632    0.0900
     20 C20       -11.9413    2.4614   63.8630 C.3     1  ZINC000031496632   -0.2000
     21 C21       -11.1398    1.2518   63.4560 C.2     1  ZINC000031496632    0.5500
     22 O22       -11.0347    0.3108   64.2139 O.2     1  ZINC000031496632   -0.5200
     23 N23       -10.5398    1.2158   62.2496 N.am    1  ZINC000031496632   -0.6200
     24 C24       -10.5782    2.2850   61.2413 C.3     1  ZINC000031496632    0.1000
     25 C25        -9.7771    1.7906   60.0184 C.3     1  ZINC000031496632   -0.1300
     26 C26        -9.8084    0.2482   60.1830 C.3     1  ZINC000031496632   -0.1300
     27 C27        -9.7309    0.1004   61.7253 C.3     1  ZINC000031496632    0.1000
     28 C28       -14.6474   -2.7821   60.3960 C.ar    1  ZINC000031496632    0.1600
     29 N29       -14.5414   -3.1486   59.1380 N.ar    1  ZINC000031496632   -0.4900
     30 C30       -13.4673   -2.8583   58.4147 C.ar    1  ZINC000031496632    0.3000
     31 H31       -14.0007   -4.1022   54.0032 H       1  ZINC000031496632    0.0800
     32 H32       -13.4458   -2.4948   54.5289 H       1  ZINC000031496632    0.0600
     33 H33       -12.3586   -3.8980   54.6589 H       1  ZINC000031496632    0.0700
     34 H34       -14.9569   -3.5094   56.2130 H       1  ZINC000031496632    0.1100
     35 H35       -14.4555   -5.8822   55.6965 H       1  ZINC000031496632    0.0800
     36 H36       -12.8134   -5.6781   56.3522 H       1  ZINC000031496632    0.0700
     37 H37       -14.2246   -5.5429   57.4284 H       1  ZINC000031496632    0.0600
     38 H38       -10.4312   -1.5074   58.0557 H       1  ZINC000031496632    0.2000
     39 H39       -11.6786   -1.2017   60.8022 H       1  ZINC000031496632    0.1500
     40 H40       -13.3408   -2.2159   63.0754 H       1  ZINC000031496632    0.4100
     41 H41       -15.4094   -2.1199   64.7452 H       1  ZINC000031496632    0.1300
     42 H42       -15.6486   -1.4474   67.0945 H       1  ZINC000031496632    0.1300
     43 H43       -15.0302    0.8245   67.8050 H       1  ZINC000031496632    0.1300
     44 H44       -14.1672    2.4444   66.1739 H       1  ZINC000031496632    0.1300
     45 H45       -11.5283    3.3489   63.3836 H       1  ZINC000031496632    0.1100
     46 H46       -11.8969    2.5792   64.9457 H       1  ZINC000031496632    0.1100
     47 H47       -11.6101    2.4849   60.9522 H       1  ZINC000031496632    0.0700
     48 H48       -10.1216    3.1897   61.6427 H       1  ZINC000031496632    0.0700
     49 H49       -10.2654    2.0895   59.0909 H       1  ZINC000031496632    0.0900
     50 H50        -8.7527    2.1615   60.0531 H       1  ZINC000031496632    0.0800
     51 H51       -10.7377   -0.1675   59.7936 H       1  ZINC000031496632    0.0800
     52 H52        -8.9447   -0.2134   59.7042 H       1  ZINC000031496632    0.0900
     53 H53        -8.6977    0.1827   62.0629 H       1  ZINC000031496632    0.0700
     54 H54       -10.1580   -0.8528   62.0370 H       1  ZINC000031496632    0.0800
     55 H55       -15.5418   -3.0351   60.9460 H       1  ZINC000031496632    0.1700
@<TRIPOS>BOND
     1     1     2    1
     2     1    31    1
     3     1    32    1
     4     1    33    1
     5     2     3    1
     6     2     4    1
     7     2    34    1
     8     3    35    1
     9     3    36    1
    10     3    37    1
    11     4    30    1
    12     4     5    1
    13     5     6    2
    14     6     7    1
    15     6    38    1
    16     7    30   ar
    17     7     8   ar
    18     8     9   ar
    19     8    39    1
    20     9    10    1
    21     9    28   ar
    22    10    11   am
    23    10    40    1
    24    11    12    2
    25    11    13    1
    26    13    18   ar
    27    13    14   ar
    28    14    15   ar
    29    14    41    1
    30    15    16   ar
    31    15    42    1
    32    16    17   ar
    33    16    43    1
    34    17    18   ar
    35    17    44    1
    36    18    19    1
    37    19    20    1
    38    20    21    1
    39    20    45    1
    40    20    46    1
    41    21    22    2
    42    21    23   am
    43    23    27    1
    44    23    24    1
    45    24    25    1
    46    24    47    1
    47    24    48    1
    48    25    26    1
    49    25    49    1
    50    25    50    1
    51    26    27    1
    52    26    51    1
    53    26    52    1
    54    27    53    1
    55    27    54    1
    56    28    29   ar
    57    28    55    1
    58    29    30   ar
@<TRIPOS>SUBSTRUCTURE
     1 ZINC000031496632        1 TEMP              0 ****  ****    0 ROOT


##########                                Name:    ZINC000914736341
##########                DOCK_Rotatable_Bonds:                   7
##########                         Heavy_Atoms:                  27
##########                    Molecular_Weight:             384.905
##########                DOCK_Rotatable_Bonds:                   7
##########                       Formal_Charge:                0.02
##########                     HBond_Acceptors:                   5
##########                        HBond_Donors:                   1
##########                         Heavy_Atoms:                  27
##########                          Grid_Score:          -34.747475
##########                     Grid_vdw_energy:          -34.879204
##########                      Grid_es_energy:            0.131727
##########           Internal_energy_repulsive:           26.724197

@<TRIPOS>MOLECULE
ZINC000914736341
 52 54 1 0 0
SMALL
USER_CHARGES


@<TRIPOS>ATOM
      1 C1         -9.8196    3.1724   53.5812 C.3     1  ZINC000914736341   -0.1400
      2 C2         -9.3505    1.7165   53.5437 C.3     1  ZINC000914736341   -0.0300
      3 C3         -8.9544    1.2718   54.9530 C.3     1  ZINC000914736341   -0.1400
      4 C4        -10.4848    0.8284   53.0285 C.3     1  ZINC000914736341    0.1300
      5 N5        -10.4996   -0.4295   53.7792 N.am    1  ZINC000914736341   -0.7200
      6 C6        -11.0427   -1.5348   53.2315 C.2     1  ZINC000914736341    0.5300
      7 O7        -11.5204   -1.4876   52.1178 O.2     1  ZINC000914736341   -0.5300
      8 C8        -11.0563   -2.8293   54.0030 C.3     1  ZINC000914736341   -0.1200
      9 H9        -10.1131   -3.3622   53.8834 H       1  ZINC000914736341    0.1200
     10 C10       -12.2502   -3.7148   53.5770 C.3     1  ZINC000914736341   -0.1400
     11 C11       -12.7034   -4.3701   54.8631 C.2     1  ZINC000914736341    0.5200
     12 O12       -13.4251   -5.3425   54.9303 O.2     1  ZINC000914736341   -0.5200
     13 N13       -12.1897   -3.7180   55.9202 N.am    1  ZINC000914736341   -0.6100
     14 C14       -12.4220   -4.0951   57.3166 C.3     1  ZINC000914736341    0.1600
     15 C15       -11.2473   -3.6628   58.1559 C.ar    1  ZINC000914736341   -0.1000
     16 C16       -10.1467   -4.4890   58.2819 C.ar    1  ZINC000914736341   -0.0800
     17 C17        -9.0690   -4.0926   59.0518 C.ar    1  ZINC000914736341   -0.1100
     18 C18        -9.0917   -2.8702   59.6964 C.ar    1  ZINC000914736341   -0.1000
     19 C19       -10.1921   -2.0428   59.5711 C.ar    1  ZINC000914736341   -0.1100
     20 C20       -11.2681   -2.4362   58.7959 C.ar    1  ZINC000914736341   -0.0300
     21 Cl21      -12.6503   -1.3977   58.6381 Cl      1  ZINC000914736341   -0.0600
     22 C22       -11.3649   -2.5798   55.4960 C.3     1  ZINC000914736341    0.1000
     23 C23        -8.1614    1.5955   52.6259 C.ar    1  ZINC000914736341   -0.0700
     24 C24        -7.4717    2.7279   52.2353 C.ar    1  ZINC000914736341   -0.1200
     25 C25        -6.3808    2.6168   51.3934 C.ar    1  ZINC000914736341   -0.1200
     26 C26        -5.9797    1.3732   50.9424 C.ar    1  ZINC000914736341   -0.1200
     27 C27        -6.6689    0.2407   51.3337 C.ar    1  ZINC000914736341   -0.1200
     28 C28        -7.7570    0.3513   52.1790 C.ar    1  ZINC000914736341   -0.1100
     29 H29        -9.0116    3.8052   53.9483 H       1  ZINC000914736341    0.0600
     30 H30       -10.1018    3.4892   52.5773 H       1  ZINC000914736341    0.0600
     31 H31       -10.6798    3.2599   54.2451 H       1  ZINC000914736341    0.0600
     32 H32        -9.8145    1.3593   55.6168 H       1  ZINC000914736341    0.0600
     33 H33        -8.6203    0.2346   54.9262 H       1  ZINC000914736341    0.0600
     34 H34        -8.1463    1.9046   55.3200 H       1  ZINC000914736341    0.0600
     35 H35       -11.4372    1.3419   53.1610 H       1  ZINC000914736341    0.0700
     36 H36       -10.3296    0.6182   51.9703 H       1  ZINC000914736341    0.0700
     37 H37       -10.1186   -0.4670   54.6705 H       1  ZINC000914736341    0.4000
     38 H38       -13.0491   -3.1026   53.1586 H       1  ZINC000914736341    0.1100
     39 H39       -11.9288   -4.4680   52.8577 H       1  ZINC000914736341    0.1100
     40 H40       -13.3268   -3.6068   57.6791 H       1  ZINC000914736341    0.1000
     41 H41       -12.5399   -5.1764   57.3862 H       1  ZINC000914736341    0.1000
     42 H42       -10.1287   -5.4446   57.7791 H       1  ZINC000914736341    0.1400
     43 H43        -8.2090   -4.7386   59.1499 H       1  ZINC000914736341    0.1300
     44 H44        -8.2499   -2.5613   60.2983 H       1  ZINC000914736341    0.1300
     45 H45       -10.2098   -1.0876   60.0748 H       1  ZINC000914736341    0.1400
     46 H46       -10.4407   -2.5479   56.0730 H       1  ZINC000914736341    0.1000
     47 H47       -11.9176   -1.6481   55.6157 H       1  ZINC000914736341    0.0900
     48 H48        -7.7850    3.6995   52.5877 H       1  ZINC000914736341    0.1300
     49 H49        -5.8424    3.5016   51.0877 H       1  ZINC000914736341    0.1200
     50 H50        -5.1279    1.2865   50.2840 H       1  ZINC000914736341    0.1200
     51 H51        -6.3557   -0.7309   50.9811 H       1  ZINC000914736341    0.1200
     52 H52        -8.2955   -0.5336   52.4848 H       1  ZINC000914736341    0.1200
@<TRIPOS>BOND
     1     1     2    1
     2     1    29    1
     3     1    30    1
     4     1    31    1
     5     2     3    1
     6     2     4    1
     7     2    23    1
     8     3    32    1
     9     3    33    1
    10     3    34    1
    11     4     5    1
    12     4    35    1
    13     4    36    1
    14     5     6   am
    15     5    37    1
    16     6     7    2
    17     6     8    1
    18     8     9    1
    19     8    22    1
    20     8    10    1
    21    10    11    1
    22    10    38    1
    23    10    39    1
    24    11    12    2
    25    11    13   am
    26    13    14    1
    27    13    22    1
    28    14    15    1
    29    14    40    1
    30    14    41    1
    31    15    20   ar
    32    15    16   ar
    33    16    17   ar
    34    16    42    1
    35    17    18   ar
    36    17    43    1
    37    18    19   ar
    38    18    44    1
    39    19    20   ar
    40    19    45    1
    41    20    21    1
    42    22    46    1
    43    22    47    1
    44    23    28   ar
    45    23    24   ar
    46    24    25   ar
    47    24    48    1
    48    25    26   ar
    49    25    49    1
    50    26    27   ar
    51    26    50    1
    52    27    28   ar
    53    27    51    1
    54    28    52    1
@<TRIPOS>SUBSTRUCTURE
     1 ZINC000914736341        1 TEMP              0 ****  ****    0 ROOT


##########                                Name:    ZINC000185598309
##########                DOCK_Rotatable_Bonds:                  14
##########                         Heavy_Atoms:                  25
##########                    Molecular_Weight:             347.457
##########                DOCK_Rotatable_Bonds:                  14
##########                       Formal_Charge:               -0.02
##########                     HBond_Acceptors:                   6
##########                        HBond_Donors:                   4
##########                         Heavy_Atoms:                  25
##########                          Grid_Score:          -34.746361
##########                     Grid_vdw_energy:          -34.159508
##########                      Grid_es_energy:           -0.586851
##########           Internal_energy_repulsive:           12.560044

@<TRIPOS>MOLECULE
ZINC000185598309
 54 54 1 0 0
SMALL
USER_CHARGES


@<TRIPOS>ATOM
      1 C1         -8.3500    0.2402   52.6440 C.3     1  ZINC000185598309   -0.1300
      2 C2         -9.1289   -0.9935   52.2667 C.2     1  ZINC000185598309   -0.1600
      3 C3        -10.2322   -1.2927   52.9063 C.2     1  ZINC000185598309   -0.1600
      4 C4        -11.0122   -2.5253   52.5279 C.3     1  ZINC000185598309   -0.0900
      5 C5        -12.4846   -2.3298   52.8947 C.3     1  ZINC000185598309    0.1700
      6 H6        -13.0433   -3.2329   52.6491 H       1  ZINC000185598309    0.1000
      7 C7        -13.0537   -1.1478   52.1075 C.3     1  ZINC000185598309    0.0600
      8 O8        -13.0245   -1.4475   50.7106 O.3     1  ZINC000185598309   -0.5700
      9 N9        -12.5985   -2.0605   54.3303 N.am    1  ZINC000185598309   -0.7300
     10 C10       -12.4831   -3.0694   55.2165 C.2     1  ZINC000185598309    0.7000
     11 O11       -12.2830   -4.2028   54.8246 O.2     1  ZINC000185598309   -0.5900
     12 N12       -12.5895   -2.8218   56.5370 N.am    1  ZINC000185598309   -0.7400
     13 C13       -12.4659   -3.9188   57.5001 C.3     1  ZINC000185598309    0.1800
     14 C14       -11.2858   -3.6644   58.4024 C.ar    1  ZINC000185598309   -0.0900
     15 C15       -10.1006   -4.3462   58.1979 C.ar    1  ZINC000185598309   -0.1100
     16 C16        -9.0155   -4.1159   59.0240 C.ar    1  ZINC000185598309   -0.1000
     17 C17        -9.1129   -3.2034   60.0559 C.ar    1  ZINC000185598309   -0.1100
     18 C18       -10.3021   -2.5166   60.2638 C.ar    1  ZINC000185598309    0.1400
     19 N19       -10.4039   -1.5910   61.3081 N.am    1  ZINC000185598309   -0.6800
     20 C20       -10.0058   -0.3171   61.1207 C.2     1  ZINC000185598309    0.5200
     21 O21        -9.5591    0.0270   60.0469 O.2     1  ZINC000185598309   -0.5200
     22 C22       -10.1154    0.6798   62.2456 C.3     1  ZINC000185598309   -0.1100
     23 H23        -9.8923    1.6782   61.8694 H       1  ZINC000185598309    0.1000
     24 C24        -9.1193    0.3161   63.3484 C.3     1  ZINC000185598309   -0.1500
     25 C25       -11.5361    0.6543   62.8129 C.3     1  ZINC000185598309   -0.1100
     26 C26       -11.8661    2.0180   63.4231 C.3     1  ZINC000185598309   -0.1600
     27 C27       -11.3879   -2.7463   59.4294 C.ar    1  ZINC000185598309   -0.1300
     28 H28        -7.4693    0.3228   52.0070 H       1  ZINC000185598309    0.0600
     29 H29        -8.9781    1.1211   52.5116 H       1  ZINC000185598309    0.0600
     30 H30        -8.0390    0.1689   53.6862 H       1  ZINC000185598309    0.0600
     31 H31        -8.7774   -1.6312   51.4689 H       1  ZINC000185598309    0.1100
     32 H32       -10.5830   -0.6557   53.7050 H       1  ZINC000185598309    0.1100
     33 H33       -10.9245   -2.6955   51.4548 H       1  ZINC000185598309    0.0900
     34 H34       -10.6148   -3.3861   53.0658 H       1  ZINC000185598309    0.0800
     35 H35       -14.0825   -0.9657   52.4186 H       1  ZINC000185598309    0.0500
     36 H36       -12.4530   -0.2593   52.3012 H       1  ZINC000185598309    0.0500
     37 H37       -12.1346   -1.5750   50.3542 H       1  ZINC000185598309    0.3800
     38 H38       -12.7569   -1.1561   54.6430 H       1  ZINC000185598309    0.4000
     39 H39       -12.7480   -1.9174   56.8497 H       1  ZINC000185598309    0.4000
     40 H40       -13.3744   -3.9807   58.0990 H       1  ZINC000185598309    0.0700
     41 H41       -12.3186   -4.8571   56.9652 H       1  ZINC000185598309    0.0800
     42 H42       -10.0219   -5.0602   57.3916 H       1  ZINC000185598309    0.1300
     43 H43        -8.0912   -4.6505   58.8622 H       1  ZINC000185598309    0.1300
     44 H44        -8.2654   -3.0243   60.7009 H       1  ZINC000185598309    0.1300
     45 H45       -10.7610   -1.8661   62.1670 H       1  ZINC000185598309    0.4100
     46 H46        -8.1071    0.3342   62.9442 H       1  ZINC000185598309    0.0600
     47 H47        -9.1986    1.0370   64.1620 H       1  ZINC000185598309    0.0800
     48 H48        -9.3424   -0.6823   63.7246 H       1  ZINC000185598309    0.0600
     49 H49       -12.2429    0.4336   62.0130 H       1  ZINC000185598309    0.0700
     50 H50       -11.6064   -0.1146   63.5823 H       1  ZINC000185598309    0.0700
     51 H51       -11.1593    2.2387   64.2231 H       1  ZINC000185598309    0.0600
     52 H52       -11.7959    2.7870   62.6538 H       1  ZINC000185598309    0.0600
     53 H53       -12.8782    1.9998   63.8274 H       1  ZINC000185598309    0.0600
     54 H54       -12.3140   -2.2137   59.5884 H       1  ZINC000185598309    0.1300
@<TRIPOS>BOND
     1     1     2    1
     2     1    28    1
     3     1    29    1
     4     1    30    1
     5     2     3    2
     6     2    31    1
     7     3     4    1
     8     3    32    1
     9     4     5    1
    10     4    33    1
    11     4    34    1
    12     5     6    1
    13     5     7    1
    14     5     9    1
    15     7     8    1
    16     7    35    1
    17     7    36    1
    18     8    37    1
    19     9    10   am
    20     9    38    1
    21    10    11    2
    22    10    12   am
    23    12    13    1
    24    12    39    1
    25    13    14    1
    26    13    40    1
    27    13    41    1
    28    14    27   ar
    29    14    15   ar
    30    15    16   ar
    31    15    42    1
    32    16    17   ar
    33    16    43    1
    34    17    18   ar
    35    17    44    1
    36    18    19    1
    37    18    27   ar
    38    19    20   am
    39    19    45    1
    40    20    21    2
    41    20    22    1
    42    22    23    1
    43    22    24    1
    44    22    25    1
    45    24    46    1
    46    24    47    1
    47    24    48    1
    48    25    26    1
    49    25    49    1
    50    25    50    1
    51    26    51    1
    52    26    52    1
    53    26    53    1
    54    27    54    1
@<TRIPOS>SUBSTRUCTURE
     1 ZINC000185598309        1 TEMP              0 ****  ****    0 ROOT


##########                                Name:    ZINC001408567397
##########                DOCK_Rotatable_Bonds:                   9
##########                         Heavy_Atoms:                  24
##########                    Molecular_Weight:             336.434
##########                DOCK_Rotatable_Bonds:                   9
##########                       Formal_Charge:          -0.0199996
##########                     HBond_Acceptors:                   7
##########                        HBond_Donors:                   2
##########                         Heavy_Atoms:                  24
##########                          Grid_Score:          -34.730995
##########                     Grid_vdw_energy:          -34.293873
##########                      Grid_es_energy:           -0.437122
##########           Internal_energy_repulsive:           19.753775

@<TRIPOS>MOLECULE
ZINC001408567397
 52 53 1 0 0
SMALL
USER_CHARGES


@<TRIPOS>ATOM
      1 C1        -10.8225   -3.8455   57.6362 C.3     1  ZINC001408567397   -0.0800
      2 C2         -9.9801   -3.5002   58.8371 C.2     1  ZINC001408567397    0.0900
      3 N3         -8.9326   -4.1630   59.2556 N.2     1  ZINC001408567397   -0.2900
      4 N4         -8.4348   -3.5201   60.3963 N.pl3   1  ZINC001408567397   -0.4700
      5 C5         -9.2194   -2.4510   60.6462 C.2     1  ZINC001408567397    0.1100
      6 C6         -9.0525   -1.4719   61.7795 C.3     1  ZINC001408567397   -0.1000
      7 C7        -10.1796   -2.4124   59.6934 C.2     1  ZINC001408567397   -0.2200
      8 C8        -11.2753   -1.3841   59.5801 C.3     1  ZINC001408567397   -0.0600
      9 C9        -12.4928   -1.8629   60.3282 C.2     1  ZINC001408567397    0.5100
     10 O10       -12.5373   -1.7704   61.5366 O.2     1  ZINC001408567397   -0.5300
     11 N11       -13.5322   -2.3940   59.6543 N.am    1  ZINC001408567397   -0.7300
     12 C12       -14.7164   -2.8579   60.3814 C.3     1  ZINC001408567397    0.1100
     13 C13       -15.6067   -3.6714   59.4398 C.3     1  ZINC001408567397    0.1000
     14 N14       -15.7307   -2.9714   58.1589 N.am    1  ZINC001408567397   -0.6200
     15 C15       -16.6122   -1.8070   58.0427 C.3     1  ZINC001408567397    0.0700
     16 C16       -15.0338   -3.3986   57.0872 C.2     1  ZINC001408567397    0.5100
     17 O17       -14.3053   -4.3634   57.1830 O.2     1  ZINC001408567397   -0.5300
     18 C18       -15.1601   -2.6775   55.7700 C.3     1  ZINC001408567397   -0.1300
     19 C19       -13.8347   -2.7663   55.0109 C.3     1  ZINC001408567397   -0.1100
     20 H20       -13.0084   -2.7837   55.7216 H       1  ZINC001408567397    0.0900
     21 C21       -13.8120   -4.0451   54.1681 C.3     1  ZINC001408567397   -0.1200
     22 C22       -12.5152   -4.0840   53.3539 C.3     1  ZINC001408567397   -0.1600
     23 C23       -12.4231   -2.8203   52.4947 C.3     1  ZINC001408567397    0.0600
     24 O24       -12.4808   -1.6677   53.3374 O.3     1  ZINC001408567397   -0.3800
     25 C25       -13.6909   -1.5527   54.0889 C.3     1  ZINC001408567397    0.0600
     26 H26       -10.4172   -3.3505   56.7537 H       1  ZINC001408567397    0.0800
     27 H27       -10.8130   -4.9248   57.4838 H       1  ZINC001408567397    0.0700
     28 H28       -11.8465   -3.5110   57.8023 H       1  ZINC001408567397    0.0800
     29 H29        -7.6626   -3.7950   60.9151 H       1  ZINC001408567397    0.4400
     30 H30        -8.4068   -0.6537   61.4607 H       1  ZINC001408567397    0.0800
     31 H31       -10.0273   -1.0758   62.0640 H       1  ZINC001408567397    0.0900
     32 H32        -8.6026   -1.9781   62.6336 H       1  ZINC001408567397    0.0700
     33 H33       -10.9342   -0.4411   60.0070 H       1  ZINC001408567397    0.1000
     34 H34       -11.5286   -1.2371   58.5302 H       1  ZINC001408567397    0.1000
     35 H35       -13.4961   -2.4693   58.6879 H       1  ZINC001408567397    0.4000
     36 H36       -14.4069   -3.4829   61.2190 H       1  ZINC001408567397    0.0700
     37 H37       -15.2729   -1.9985   60.7555 H       1  ZINC001408567397    0.0700
     38 H38       -15.1613   -4.6526   59.2761 H       1  ZINC001408567397    0.0800
     39 H39       -16.5941   -3.7904   59.8858 H       1  ZINC001408567397    0.0900
     40 H40       -16.0512   -0.9019   58.2752 H       1  ZINC001408567397    0.0600
     41 H41       -16.9985   -1.7438   57.0255 H       1  ZINC001408567397    0.0800
     42 H42       -17.4429   -1.9091   58.7411 H       1  ZINC001408567397    0.0800
     43 H43       -15.9499   -3.1389   55.1773 H       1  ZINC001408567397    0.1000
     44 H44       -15.4058   -1.6310   55.9508 H       1  ZINC001408567397    0.1000
     45 H45       -13.8572   -4.9147   54.8238 H       1  ZINC001408567397    0.0700
     46 H46       -14.6672   -4.0517   53.4923 H       1  ZINC001408567397    0.0600
     47 H47       -11.6616   -4.1276   54.0304 H       1  ZINC001408567397    0.0700
     48 H48       -12.5158   -4.9633   52.7097 H       1  ZINC001408567397    0.0700
     49 H49       -11.4818   -2.8222   51.9453 H       1  ZINC001408567397    0.0900
     50 H50       -13.2551   -2.7980   51.7908 H       1  ZINC001408567397    0.0500
     51 H51       -14.5401   -1.5136   53.4066 H       1  ZINC001408567397    0.0400
     52 H52       -13.6625   -0.6415   54.6865 H       1  ZINC001408567397    0.1100
@<TRIPOS>BOND
     1     1     2    1
     2     1    26    1
     3     1    27    1
     4     1    28    1
     5     2     7    1
     6     2     3    2
     7     3     4    1
     8     4     5    1
     9     4    29    1
    10     5     6    1
    11     5     7    2
    12     6    30    1
    13     6    31    1
    14     6    32    1
    15     7     8    1
    16     8     9    1
    17     8    33    1
    18     8    34    1
    19     9    10    2
    20     9    11   am
    21    11    12    1
    22    11    35    1
    23    12    13    1
    24    12    36    1
    25    12    37    1
    26    13    14    1
    27    13    38    1
    28    13    39    1
    29    14    15    1
    30    14    16   am
    31    15    40    1
    32    15    41    1
    33    15    42    1
    34    16    17    2
    35    16    18    1
    36    18    19    1
    37    18    43    1
    38    18    44    1
    39    19    20    1
    40    19    25    1
    41    19    21    1
    42    21    22    1
    43    21    45    1
    44    21    46    1
    45    22    23    1
    46    22    47    1
    47    22    48    1
    48    23    24    1
    49    23    49    1
    50    23    50    1
    51    24    25    1
    52    25    51    1
    53    25    52    1
@<TRIPOS>SUBSTRUCTURE
     1 ZINC001408567397        1 TEMP              0 ****  ****    0 ROOT


##########                                Name:    ZINC000369046711
##########                DOCK_Rotatable_Bonds:                   8
##########                         Heavy_Atoms:                  26
##########                    Molecular_Weight:             367.467
##########                DOCK_Rotatable_Bonds:                   8
##########                       Formal_Charge:        -7.63685e-07
##########                     HBond_Acceptors:                   8
##########                        HBond_Donors:                   1
##########                         Heavy_Atoms:                  26
##########                          Grid_Score:          -34.674248
##########                     Grid_vdw_energy:          -34.253536
##########                      Grid_es_energy:           -0.420713
##########           Internal_energy_repulsive:           15.634661

@<TRIPOS>MOLECULE
ZINC000369046711
 56 58 1 0 0
SMALL
USER_CHARGES


@<TRIPOS>ATOM
      1 C1         -8.8567   -3.4030   59.4855 C.3     1  ZINC000369046711   -0.1800
      2 C2        -10.1529   -2.6061   59.3255 C.3     1  ZINC000369046711    0.1400
      3 C3        -10.6108   -2.0968   60.6936 C.3     1  ZINC000369046711   -0.1800
      4 C4         -9.9089   -1.4171   58.3942 C.3     1  ZINC000369046711   -0.1400
      5 O5        -11.1803   -3.4618   58.7590 O.3     1  ZINC000369046711   -0.3700
      6 C6        -12.0597   -2.8861   57.9175 C.2     1  ZINC000369046711    0.6500
      7 O7        -12.9836   -2.2317   58.3588 O.2     1  ZINC000369046711   -0.5700
      8 N8        -11.9154   -3.0359   56.5860 N.am    1  ZINC000369046711   -0.7100
      9 C9        -12.8713   -2.4081   55.6704 C.3     1  ZINC000369046711    0.1800
     10 H10       -13.3007   -1.5299   56.1527 H       1  ZINC000369046711    0.0900
     11 C11       -13.9894   -3.4022   55.3588 C.3     1  ZINC000369046711   -0.1300
     12 C12       -13.3648   -4.6209   54.6693 C.3     1  ZINC000369046711   -0.1200
     13 C13       -12.7763   -4.1709   53.3352 C.3     1  ZINC000369046711   -0.1200
     14 C14       -11.6607   -3.1450   53.5449 C.3     1  ZINC000369046711   -0.1000
     15 H15       -10.7479   -3.6046   53.9236 H       1  ZINC000369046711    0.0900
     16 C16       -11.4449   -2.4444   52.1755 C.3     1  ZINC000369046711    0.0400
     17 N17       -12.3183   -1.2547   52.1589 N.3     1  ZINC000369046711   -0.5200
     18 C18       -13.2628   -1.3107   51.0352 C.3     1  ZINC000369046711    0.1200
     19 C19       -13.3598    0.0489   50.3923 C.2     1  ZINC000369046711    0.2900
     20 N20       -13.3233    1.1982   51.0164 N.2     1  ZINC000369046711   -0.5400
     21 C21       -13.4357    2.1933   50.1376 C.2     1  ZINC000369046711    0.2000
     22 N22       -13.5459    1.6888   48.9368 N.2     1  ZINC000369046711   -0.3200
     23 N23       -13.4932    0.2925   49.0770 N.pl3   1  ZINC000369046711   -0.3700
     24 C24       -13.5767   -0.7015   48.0041 C.3     1  ZINC000369046711    0.1000
     25 C25       -14.9740   -1.3245   47.9936 C.3     1  ZINC000369046711    0.0500
     26 F26       -15.0981   -2.1729   46.8882 F       1  ZINC000369046711   -0.2000
     27 C27       -13.0365   -1.1786   53.4534 C.3     1  ZINC000369046711    0.0500
     28 C28       -12.1454   -1.9773   54.4215 C.3     1  ZINC000369046711   -0.1000
     29 H29       -11.2894   -1.3662   54.7076 H       1  ZINC000369046711    0.0900
     30 H30        -9.0305   -4.2501   60.1490 H       1  ZINC000369046711    0.0900
     31 H31        -8.5305   -3.7658   58.5109 H       1  ZINC000369046711    0.0600
     32 H32        -8.0856   -2.7606   59.9108 H       1  ZINC000369046711    0.0700
     33 H33        -9.8397   -1.4545   61.1189 H       1  ZINC000369046711    0.0700
     34 H34       -11.5343   -1.5291   60.5796 H       1  ZINC000369046711    0.0600
     35 H35       -10.7847   -2.9439   61.3571 H       1  ZINC000369046711    0.0900
     36 H36        -9.5828   -1.7799   57.4194 H       1  ZINC000369046711    0.0700
     37 H37       -10.8325   -0.8494   58.2801 H       1  ZINC000369046711    0.0700
     38 H38        -9.1378   -0.7747   58.8194 H       1  ZINC000369046711    0.0800
     39 H39       -11.1786   -3.5593   56.2338 H       1  ZINC000369046711    0.4000
     40 H40       -14.4753   -3.7117   56.2841 H       1  ZINC000369046711    0.0700
     41 H41       -14.7201   -2.9386   54.6960 H       1  ZINC000369046711    0.0800
     42 H42       -12.5758   -5.0339   55.2977 H       1  ZINC000369046711    0.0600
     43 H43       -14.1305   -5.3772   54.4962 H       1  ZINC000369046711    0.0700
     44 H44       -12.3719   -5.0374   52.8120 H       1  ZINC000369046711    0.0700
     45 H45       -13.5643   -3.7238   52.7292 H       1  ZINC000369046711    0.0600
     46 H46       -10.4027   -2.1424   52.0720 H       1  ZINC000369046711    0.0800
     47 H47       -11.7195   -3.1192   51.3647 H       1  ZINC000369046711    0.0800
     48 H48       -12.9114   -2.0356   50.3009 H       1  ZINC000369046711    0.0800
     49 H49       -14.2449   -1.6107   51.4007 H       1  ZINC000369046711    0.1000
     50 H50       -13.4364    3.2462   50.3784 H       1  ZINC000369046711    0.2200
     51 H51       -13.3871   -0.2183   47.0456 H       1  ZINC000369046711    0.1200
     52 H52       -12.8328   -1.4804   48.1717 H       1  ZINC000369046711    0.1100
     53 H53       -15.1237   -1.8966   48.9093 H       1  ZINC000369046711    0.0900
     54 H54       -15.7233   -0.5353   47.9317 H       1  ZINC000369046711    0.0800
     55 H55       -13.1254   -0.1426   53.7806 H       1  ZINC000369046711    0.0900
     56 H56       -14.0205   -1.6403   53.3720 H       1  ZINC000369046711    0.0600
@<TRIPOS>BOND
     1     1     2    1
     2     1    30    1
     3     1    31    1
     4     1    32    1
     5     2     3    1
     6     2     4    1
     7     2     5    1
     8     3    33    1
     9     3    34    1
    10     3    35    1
    11     4    36    1
    12     4    37    1
    13     4    38    1
    14     5     6    1
    15     6     7    2
    16     6     8   am
    17     8     9    1
    18     8    39    1
    19     9    10    1
    20     9    28    1
    21     9    11    1
    22    11    12    1
    23    11    40    1
    24    11    41    1
    25    12    13    1
    26    12    42    1
    27    12    43    1
    28    13    14    1
    29    13    44    1
    30    13    45    1
    31    14    15    1
    32    14    28    1
    33    14    16    1
    34    16    17    1
    35    16    46    1
    36    16    47    1
    37    17    18    1
    38    17    27    1
    39    18    19    1
    40    18    48    1
    41    18    49    1
    42    19    23    1
    43    19    20    2
    44    20    21    1
    45    21    22    2
    46    21    50    1
    47    22    23    1
    48    23    24    1
    49    24    25    1
    50    24    51    1
    51    24    52    1
    52    25    26    1
    53    25    53    1
    54    25    54    1
    55    27    28    1
    56    27    55    1
    57    27    56    1
    58    28    29    1
@<TRIPOS>SUBSTRUCTURE
     1 ZINC000369046711        1 TEMP              0 ****  ****    0 ROOT


##########                                Name:    ZINC000129637895
##########                DOCK_Rotatable_Bonds:                   7
##########                         Heavy_Atoms:                  26
##########                    Molecular_Weight:             374.464
##########                DOCK_Rotatable_Bonds:                   7
##########                       Formal_Charge:        -5.51343e-07
##########                     HBond_Acceptors:                   8
##########                        HBond_Donors:                   1
##########                         Heavy_Atoms:                  26
##########                          Grid_Score:          -34.662693
##########                     Grid_vdw_energy:          -34.394016
##########                      Grid_es_energy:           -0.268677
##########           Internal_energy_repulsive:           19.941420

@<TRIPOS>MOLECULE
ZINC000129637895
 48 50 1 0 0
SMALL
USER_CHARGES


@<TRIPOS>ATOM
      1 C1        -10.5335    0.9922   53.8971 C.3     1  ZINC000129637895   -0.1500
      2 C2        -10.0824   -0.4430   54.1758 C.3     1  ZINC000129637895   -0.0500
      3 C3        -10.9495   -1.4014   53.4008 C.2     1  ZINC000129637895    0.0300
      4 C4        -11.1461   -2.6771   53.7794 C.2     1  ZINC000129637895   -0.0200
      5 N5        -10.6010   -3.2927   54.9053 N.am    1  ZINC000129637895   -0.5900
      6 C6        -11.1605   -3.0998   56.1162 C.2     1  ZINC000129637895    0.5000
      7 O7        -12.1402   -2.3910   56.2262 O.2     1  ZINC000129637895   -0.4800
      8 C8        -10.5759   -3.7575   57.3217 C.2     1  ZINC000129637895    0.5200
      9 O9        -10.7115   -4.9522   57.4872 O.2     1  ZINC000129637895   -0.5100
     10 N10        -9.8971   -3.0246   58.2266 N.am    1  ZINC000129637895   -0.5800
     11 C11        -9.7264   -1.5747   58.0486 C.3     1  ZINC000129637895    0.0800
     12 C12       -10.1586   -0.8714   59.3395 C.3     1  ZINC000129637895    0.0400
     13 N13        -9.4277   -1.4481   60.4759 N.3     1  ZINC000129637895   -0.4900
     14 C14        -9.6717   -0.7260   61.6464 C.ar    1  ZINC000129637895    0.1500
     15 C15        -8.7777   -0.7984   62.7074 C.ar    1  ZINC000129637895   -0.2100
     16 C16        -9.0190   -0.0837   63.8649 C.ar    1  ZINC000129637895   -0.0500
     17 C17       -10.1493    0.7041   63.9706 C.ar    1  ZINC000129637895   -0.2300
     18 C18       -11.0460    0.7803   62.9137 C.ar    1  ZINC000129637895    0.1500
     19 O19       -12.1569    1.5559   63.0193 O.3     1  ZINC000129637895   -0.3200
     20 C20       -12.0679    2.8890   62.5125 C.3     1  ZINC000129637895    0.0300
     21 C21       -10.8049    0.0694   61.7489 C.ar    1  ZINC000129637895   -0.1700
     22 C22        -9.7565   -2.8685   60.6555 C.3     1  ZINC000129637895    0.0400
     23 C23        -9.3130   -3.6526   59.4215 C.3     1  ZINC000129637895    0.1100
     24 S24       -12.2160   -3.4315   52.6000 S.3     1  ZINC000129637895    0.2400
     25 C25       -12.2936   -1.9682   51.7196 C.2     1  ZINC000129637895   -0.0300
     26 N26       -11.5841   -1.0594   52.2976 N.2     1  ZINC000129637895   -0.4500
     27 H27       -10.4430    1.2011   52.8312 H       1  ZINC000129637895    0.0600
     28 H28       -11.5724    1.1127   54.2041 H       1  ZINC000129637895    0.0500
     29 H29        -9.9063    1.6855   54.4578 H       1  ZINC000129637895    0.0700
     30 H30        -9.0435   -0.5634   53.8689 H       1  ZINC000129637895    0.0900
     31 H31       -10.1729   -0.6518   55.2418 H       1  ZINC000129637895    0.0700
     32 H32        -9.8191   -3.8599   54.8172 H       1  ZINC000129637895    0.4300
     33 H33        -8.6793   -1.3519   57.8432 H       1  ZINC000129637895    0.0900
     34 H34       -10.3459   -1.2320   57.2198 H       1  ZINC000129637895    0.1400
     35 H35        -9.9356    0.1930   59.2661 H       1  ZINC000129637895    0.1000
     36 H36       -11.2296   -1.0096   59.4881 H       1  ZINC000129637895    0.0500
     37 H37        -7.8939   -1.4139   62.6276 H       1  ZINC000129637895    0.1300
     38 H38        -8.3231   -0.1410   64.6887 H       1  ZINC000129637895    0.1300
     39 H39       -10.3355    1.2611   64.8770 H       1  ZINC000129637895    0.1300
     40 H40       -11.2830    3.4279   63.0430 H       1  ZINC000129637895    0.0600
     41 H41       -11.8323    2.8582   61.4487 H       1  ZINC000129637895    0.0600
     42 H42       -13.0208    3.3977   62.6589 H       1  ZINC000129637895    0.1000
     43 H43       -11.5012    0.1278   60.9255 H       1  ZINC000129637895    0.1300
     44 H44        -9.2421   -3.2524   61.5364 H       1  ZINC000129637895    0.1000
     45 H45       -10.8331   -2.9790   60.7856 H       1  ZINC000129637895    0.0500
     46 H46        -9.6566   -4.6840   59.5001 H       1  ZINC000129637895    0.1100
     47 H47        -8.2259   -3.6307   59.3449 H       1  ZINC000129637895    0.0900
     48 H48       -12.8597   -1.8240   50.8112 H       1  ZINC000129637895    0.2000
@<TRIPOS>BOND
     1     1     2    1
     2     1    27    1
     3     1    28    1
     4     1    29    1
     5     2     3    1
     6     2    30    1
     7     2    31    1
     8     3    26    1
     9     3     4    2
    10     4     5    1
    11     4    24    1
    12     5     6   am
    13     5    32    1
    14     6     7    2
    15     6     8    1
    16     8     9    2
    17     8    10   am
    18    10    23    1
    19    10    11    1
    20    11    12    1
    21    11    33    1
    22    11    34    1
    23    12    13    1
    24    12    35    1
    25    12    36    1
    26    13    14    1
    27    13    22    1
    28    14    21   ar
    29    14    15   ar
    30    15    16   ar
    31    15    37    1
    32    16    17   ar
    33    16    38    1
    34    17    18   ar
    35    17    39    1
    36    18    19    1
    37    18    21   ar
    38    19    20    1
    39    20    40    1
    40    20    41    1
    41    20    42    1
    42    21    43    1
    43    22    23    1
    44    22    44    1
    45    22    45    1
    46    23    46    1
    47    23    47    1
    48    24    25    1
    49    25    26    2
    50    25    48    1
@<TRIPOS>SUBSTRUCTURE
     1 ZINC000129637895        1 TEMP              0 ****  ****    0 ROOT


##########                                Name:    ZINC000654382142
##########                DOCK_Rotatable_Bonds:                  14
##########                         Heavy_Atoms:                  24
##########                    Molecular_Weight:             379.401
##########                DOCK_Rotatable_Bonds:                  14
##########                       Formal_Charge:          0.00999933
##########                     HBond_Acceptors:                  12
##########                        HBond_Donors:                   2
##########                         Heavy_Atoms:                  24
##########                          Grid_Score:          -34.629192
##########                     Grid_vdw_energy:          -33.752354
##########                      Grid_es_energy:           -0.876837
##########           Internal_energy_repulsive:           20.198317

@<TRIPOS>MOLECULE
ZINC000654382142
 48 47 1 0 0
SMALL
USER_CHARGES


@<TRIPOS>ATOM
      1 C1         -7.1782   -0.8317   51.5687 C.3     1  ZINC000654382142    0.0300
      2 O2         -8.2902   -1.7108   51.7499 O.3     1  ZINC000654382142   -0.3700
      3 C3         -9.4546   -1.0735   52.2791 C.3     1  ZINC000654382142    0.0400
      4 C4        -10.6587   -2.0055   52.1291 C.3     1  ZINC000654382142    0.1400
      5 N5        -11.6920   -1.6281   53.0967 N.am    1  ZINC000654382142   -0.6100
      6 C6        -12.7405   -0.6787   52.7156 C.3     1  ZINC000654382142    0.0800
      7 C7        -13.6617   -1.3252   51.6790 C.3     1  ZINC000654382142    0.0500
      8 H8        -13.0611   -1.8523   50.9378 H       1  ZINC000654382142    0.1400
      9 O9        -14.4357   -0.3127   51.0324 O.3     1  ZINC000654382142   -0.5200
     10 C10       -14.5973   -2.3156   52.3753 C.3     1  ZINC000654382142    0.4200
     11 F11       -15.1674   -1.7076   53.4989 F       1  ZINC000654382142   -0.1800
     12 F12       -15.6094   -2.7020   51.4901 F       1  ZINC000654382142   -0.1700
     13 F13       -13.8705   -3.4427   52.7733 F       1  ZINC000654382142   -0.1800
     14 C14       -11.6778   -2.1543   54.3373 C.2     1  ZINC000654382142    0.7100
     15 O15       -10.8066   -2.9412   54.6540 O.2     1  ZINC000654382142   -0.5600
     16 N16       -12.6293   -1.8084   55.2269 N.am    1  ZINC000654382142   -0.7500
     17 C17       -12.6149   -2.3818   56.5751 C.3     1  ZINC000654382142    0.1400
     18 C18       -11.6107   -1.6201   57.4425 C.3     1  ZINC000654382142   -0.1600
     19 C19       -11.4514   -2.3354   58.7855 C.3     1  ZINC000654382142    0.1200
     20 N20       -10.2271   -3.1398   58.7682 N.am    1  ZINC000654382142   -1.0000
     21 C21       -10.1873   -4.3972   58.0175 C.3     1  ZINC000654382142    0.0900
     22 S22        -8.8881   -2.6277   59.5972 S.o2    1  ZINC000654382142    2.6100
     23 C23        -9.4361   -2.5257   61.3235 C.3     1  ZINC000654382142   -0.6800
     24 O24        -7.9499   -3.6823   59.4333 O.2     1  ZINC000654382142   -0.9500
     25 O25        -8.6298   -1.3301   59.0786 O.2     1  ZINC000654382142   -0.9500
     26 H26        -6.3349   -1.3913   51.1640 H       1  ZINC000654382142    0.0900
     27 H27        -7.4528   -0.0365   50.8756 H       1  ZINC000654382142    0.0400
     28 H28        -6.8988   -0.3968   52.5284 H       1  ZINC000654382142    0.0400
     29 H29        -9.2982   -0.8491   53.3342 H       1  ZINC000654382142    0.0500
     30 H30        -9.6415   -0.1480   51.7346 H       1  ZINC000654382142    0.0600
     31 H31       -11.0591   -1.9219   51.1188 H       1  ZINC000654382142    0.0900
     32 H32       -10.3472   -3.0338   52.3125 H       1  ZINC000654382142    0.1000
     33 H33       -13.3207   -0.4052   53.5969 H       1  ZINC000654382142    0.1000
     34 H34       -12.2843    0.2148   52.2893 H       1  ZINC000654382142    0.1000
     35 H35       -13.9063    0.3759   50.6076 H       1  ZINC000654382142    0.3900
     36 H36       -13.3235   -1.1797   54.9747 H       1  ZINC000654382142    0.3900
     37 H37       -13.6091   -2.3016   57.0146 H       1  ZINC000654382142    0.0700
     38 H38       -12.3254   -3.4313   56.5204 H       1  ZINC000654382142    0.0700
     39 H39       -10.6471   -1.5822   56.9345 H       1  ZINC000654382142    0.0700
     40 H40       -11.9725   -0.6060   57.6117 H       1  ZINC000654382142    0.0800
     41 H41       -11.3899   -1.5973   59.5853 H       1  ZINC000654382142    0.0900
     42 H42       -12.3103   -2.9847   58.9556 H       1  ZINC000654382142    0.1000
     43 H43        -9.8556   -4.2012   56.9978 H       1  ZINC000654382142    0.0600
     44 H44        -9.4935   -5.0862   58.4993 H       1  ZINC000654382142    0.0700
     45 H45       -11.1833   -4.8396   57.9968 H       1  ZINC000654382142    0.0700
     46 H46        -9.7703   -3.5082   61.6572 H       1  ZINC000654382142    0.1300
     47 H47        -8.6078   -2.1920   61.9486 H       1  ZINC000654382142    0.1300
     48 H48       -10.2595   -1.8158   61.4020 H       1  ZINC000654382142    0.1300
@<TRIPOS>BOND
     1     1     2    1
     2     1    26    1
     3     1    27    1
     4     1    28    1
     5     2     3    1
     6     3     4    1
     7     3    29    1
     8     3    30    1
     9     4     5    1
    10     4    31    1
    11     4    32    1
    12     5     6    1
    13     5    14   am
    14     6     7    1
    15     6    33    1
    16     6    34    1
    17     7     8    1
    18     7     9    1
    19     7    10    1
    20     9    35    1
    21    10    11    1
    22    10    12    1
    23    10    13    1
    24    14    15    2
    25    14    16   am
    26    16    17    1
    27    16    36    1
    28    17    18    1
    29    17    37    1
    30    17    38    1
    31    18    19    1
    32    18    39    1
    33    18    40    1
    34    19    20    1
    35    19    41    1
    36    19    42    1
    37    20    21    1
    38    20    22   am
    39    21    43    1
    40    21    44    1
    41    21    45    1
    42    22    23    1
    43    22    24    2
    44    22    25    2
    45    23    46    1
    46    23    47    1
    47    23    48    1
@<TRIPOS>SUBSTRUCTURE
     1 ZINC000654382142        1 TEMP              0 ****  ****    0 ROOT


##########                                Name:    ZINC000459459628
##########                DOCK_Rotatable_Bonds:                   8
##########                         Heavy_Atoms:                  27
##########                    Molecular_Weight:             377.366
##########                DOCK_Rotatable_Bonds:                   8
##########                       Formal_Charge:         -0.00999984
##########                     HBond_Acceptors:                   8
##########                        HBond_Donors:                   1
##########                         Heavy_Atoms:                  27
##########                          Grid_Score:          -34.607250
##########                     Grid_vdw_energy:          -32.768421
##########                      Grid_es_energy:           -1.838828
##########           Internal_energy_repulsive:           11.419430

@<TRIPOS>MOLECULE
ZINC000459459628
 45 46 1 0 0
SMALL
USER_CHARGES


@<TRIPOS>ATOM
      1 C1        -14.4881   -1.2362   57.5152 C.3     1  ZINC000459459628   -0.1600
      2 C2        -13.7181   -2.4490   58.0419 C.3     1  ZINC000459459628    0.1600
      3 H3        -12.6497   -2.2942   57.8916 H       1  ZINC000459459628    0.1100
      4 C4        -14.1631   -3.7030   57.2865 C.3     1  ZINC000459459628   -0.0900
      5 C5        -13.5464   -3.7063   55.9115 C.ar    1  ZINC000459459628   -0.0500
      6 C6        -14.3402   -3.5061   54.7978 C.ar    1  ZINC000459459628   -0.1200
      7 C7        -13.7758   -3.5090   53.5356 C.ar    1  ZINC000459459628   -0.0900
      8 C8        -12.4172   -3.7120   53.3861 C.ar    1  ZINC000459459628   -0.1600
      9 C9        -11.6208   -3.9121   54.5012 C.ar    1  ZINC000459459628    0.1000
     10 F10       -10.2923   -4.1107   54.3563 F       1  ZINC000459459628   -0.1400
     11 C11       -12.1862   -3.9038   55.7649 C.ar    1  ZINC000459459628   -0.1500
     12 N12       -13.9908   -2.6175   59.4714 N.am    1  ZINC000459459628   -0.6200
     13 C13       -15.2234   -3.2775   59.9091 C.3     1  ZINC000459459628    0.0700
     14 C14       -13.1079   -2.1653   60.3837 C.2     1  ZINC000459459628    0.7100
     15 O15       -13.3348   -2.3038   61.5701 O.2     1  ZINC000459459628   -0.5700
     16 N16       -11.9733   -1.5596   59.9807 N.am    1  ZINC000459459628   -0.6800
     17 C17       -11.0548   -1.0892   60.9297 C.ar    1  ZINC000459459628    0.1500
     18 C18       -11.2614    0.1308   61.5468 C.ar    1  ZINC000459459628   -0.0400
     19 C19       -10.3436    0.5958   62.4926 C.ar    1  ZINC000459459628   -0.0300
     20 C20       -10.5528    1.8583   63.1351 C.1     1  ZINC000459459628    0.2600
     21 N21       -10.7188    2.8598   63.6449 N.1     1  ZINC000459459628   -0.4100
     22 C22        -9.2217   -0.1739   62.8101 C.ar    1  ZINC000459459628   -0.0500
     23 C23        -9.0212   -1.3892   62.1908 C.ar    1  ZINC000459459628   -0.1700
     24 C24        -9.9346   -1.8547   61.2559 C.ar    1  ZINC000459459628    0.1100
     25 O25        -9.7323   -3.0528   60.6489 O.3     1  ZINC000459459628   -0.3200
     26 C26        -8.5961   -3.1607   59.7889 C.3     1  ZINC000459459628    0.4100
     27 F27        -8.7911   -4.2136   58.8886 F       1  ZINC000459459628   -0.1900
     28 F28        -8.4325   -1.9655   59.0803 F       1  ZINC000459459628   -0.1900
     29 H29       -15.5566   -1.3910   57.6656 H       1  ZINC000459459628    0.0600
     30 H30       -14.1712   -0.3430   58.0535 H       1  ZINC000459459628    0.0600
     31 H31       -14.2853   -1.1109   56.4517 H       1  ZINC000459459628    0.0700
     32 H32       -13.8397   -4.5896   57.8320 H       1  ZINC000459459628    0.0800
     33 H33       -15.2494   -3.7071   57.1975 H       1  ZINC000459459628    0.0900
     34 H34       -15.4022   -3.3478   54.9136 H       1  ZINC000459459628    0.1300
     35 H35       -14.3971   -3.3529   52.6661 H       1  ZINC000459459628    0.1300
     36 H36       -11.9766   -3.7149   52.4001 H       1  ZINC000459459628    0.1300
     37 H37       -11.5660   -4.0595   56.6352 H       1  ZINC000459459628    0.1300
     38 H38       -15.0481   -4.3492   60.0023 H       1  ZINC000459459628    0.0600
     39 H39       -15.5285   -2.8739   60.8746 H       1  ZINC000459459628    0.0700
     40 H40       -16.0103   -3.1004   59.1762 H       1  ZINC000459459628    0.0800
     41 H41       -11.7923   -1.4491   59.0342 H       1  ZINC000459459628    0.4100
     42 H42       -12.1298    0.7230   61.2984 H       1  ZINC000459459628    0.1600
     43 H43        -8.5111    0.1835   63.5406 H       1  ZINC000459459628    0.1400
     44 H44        -8.1530   -1.9825   62.4371 H       1  ZINC000459459628    0.1500
     45 H45        -7.7052   -3.3537   60.3864 H       1  ZINC000459459628    0.1900
@<TRIPOS>BOND
     1     1     2    1
     2     1    29    1
     3     1    30    1
     4     1    31    1
     5     2     3    1
     6     2     4    1
     7     2    12    1
     8     4     5    1
     9     4    32    1
    10     4    33    1
    11     5    11   ar
    12     5     6   ar
    13     6     7   ar
    14     6    34    1
    15     7     8   ar
    16     7    35    1
    17     8     9   ar
    18     8    36    1
    19     9    10    1
    20     9    11   ar
    21    11    37    1
    22    12    13    1
    23    12    14   am
    24    13    38    1
    25    13    39    1
    26    13    40    1
    27    14    15    2
    28    14    16   am
    29    16    17    1
    30    16    41    1
    31    17    24   ar
    32    17    18   ar
    33    18    19   ar
    34    18    42    1
    35    19    20    1
    36    19    22   ar
    37    20    21    3
    38    22    23   ar
    39    22    43    1
    40    23    24   ar
    41    23    44    1
    42    24    25    1
    43    25    26    1
    44    26    27    1
    45    26    28    1
    46    26    45    1
@<TRIPOS>SUBSTRUCTURE
     1 ZINC000459459628        1 TEMP              0 ****  ****    0 ROOT


##########                                Name:    ZINC000425987417
##########                DOCK_Rotatable_Bonds:                   9
##########                         Heavy_Atoms:                  25
##########                    Molecular_Weight:             357.419
##########                DOCK_Rotatable_Bonds:                   9
##########                       Formal_Charge:         -0.00999992
##########                     HBond_Acceptors:                   7
##########                        HBond_Donors:                   1
##########                         Heavy_Atoms:                  25
##########                          Grid_Score:          -34.565063
##########                     Grid_vdw_energy:          -34.203342
##########                      Grid_es_energy:           -0.361719
##########           Internal_energy_repulsive:           17.236078

@<TRIPOS>MOLECULE
ZINC000425987417
 51 52 1 0 0
SMALL
USER_CHARGES


@<TRIPOS>ATOM
      1 C1        -14.7948   -1.8391   55.2637 C.3     1  ZINC000425987417   -0.1500
      2 C2        -14.5267   -3.1489   54.5198 C.3     1  ZINC000425987417    0.0400
      3 N3        -13.2959   -3.7623   55.0362 N.3     1  ZINC000425987417   -0.5300
      4 C4        -13.5975   -4.9651   55.8239 C.3     1  ZINC000425987417    0.0400
      5 C5        -13.9339   -4.5624   57.2611 C.3     1  ZINC000425987417    0.1400
      6 N6        -12.9236   -3.6230   57.7542 N.am    1  ZINC000425987417   -0.7500
      7 C7        -11.6681   -4.0494   57.9961 C.2     1  ZINC000425987417    0.7200
      8 O8        -11.3740   -5.2135   57.8049 O.2     1  ZINC000425987417   -0.5800
      9 N9        -10.7387   -3.1852   58.4499 N.am    1  ZINC000425987417   -0.6200
     10 C10        -9.3588   -3.6192   58.7238 C.3     1  ZINC000425987417    0.1300
     11 C11        -9.1038   -3.4565   60.2215 C.3     1  ZINC000425987417   -0.1000
     12 C12        -9.5626   -2.1041   60.6995 C.ar    1  ZINC000425987417   -0.0600
     13 C13        -9.0353   -1.6301   61.8942 C.ar    1  ZINC000425987417   -0.1200
     14 C14        -9.4205   -0.4031   62.3936 C.ar    1  ZINC000425987417   -0.1100
     15 C15       -10.3401    0.3627   61.7020 C.ar    1  ZINC000425987417   -0.1200
     16 C16       -10.8631   -0.1042   60.5133 C.ar    1  ZINC000425987417   -0.1100
     17 C17       -10.4720   -1.3359   60.0070 C.ar    1  ZINC000425987417   -0.0900
     18 C18       -11.0600   -1.7734   58.6847 C.3     1  ZINC000425987417    0.1800
     19 H19       -12.1424   -1.6470   58.7095 H       1  ZINC000425987417    0.0900
     20 C20       -10.4733   -0.9191   57.5591 C.3     1  ZINC000425987417   -0.1600
     21 C21       -12.3621   -4.0685   53.9443 C.3     1  ZINC000425987417    0.0500
     22 C22       -11.1819   -3.0962   53.9947 C.3     1  ZINC000425987417   -0.1600
     23 C23       -11.2523   -2.1461   52.7976 C.3     1  ZINC000425987417    0.4500
     24 F24       -12.4755   -1.4673   52.8122 F       1  ZINC000425987417   -0.1800
     25 F25       -10.2051   -1.2216   52.8735 F       1  ZINC000425987417   -0.1800
     26 F26       -11.1408   -2.8806   51.6121 F       1  ZINC000425987417   -0.1900
     27 H27       -13.9794   -1.1407   55.0751 H       1  ZINC000425987417    0.0500
     28 H28       -15.7318   -1.4070   54.9126 H       1  ZINC000425987417    0.0600
     29 H29       -14.8640   -2.0364   56.3335 H       1  ZINC000425987417    0.0700
     30 H30       -15.3636   -3.8306   54.6713 H       1  ZINC000425987417    0.0800
     31 H31       -14.4121   -2.9452   53.4551 H       1  ZINC000425987417    0.0400
     32 H32       -14.4487   -5.4840   55.3831 H       1  ZINC000425987417    0.0500
     33 H33       -12.7303   -5.6254   55.8250 H       1  ZINC000425987417    0.0800
     34 H34       -14.9145   -4.0871   57.2850 H       1  ZINC000425987417    0.0800
     35 H35       -13.9447   -5.4498   57.8940 H       1  ZINC000425987417    0.0700
     36 H36       -13.1583   -2.6943   57.9068 H       1  ZINC000425987417    0.3900
     37 H37        -9.2380   -4.6648   58.4406 H       1  ZINC000425987417    0.1000
     38 H38        -8.6592   -3.0009   58.1613 H       1  ZINC000425987417    0.0700
     39 H39        -9.6458   -4.2313   60.7637 H       1  ZINC000425987417    0.0800
     40 H40        -8.0368   -3.5628   60.4171 H       1  ZINC000425987417    0.0900
     41 H41        -8.3178   -2.2275   62.4370 H       1  ZINC000425987417    0.1200
     42 H42        -9.0048   -0.0421   63.3227 H       1  ZINC000425987417    0.1200
     43 H43       -10.6484    1.3221   62.0904 H       1  ZINC000425987417    0.1200
     44 H44       -11.5822    0.4934   59.9728 H       1  ZINC000425987417    0.1200
     45 H45        -9.3908   -1.0438   57.5348 H       1  ZINC000425987417    0.0700
     46 H46       -10.8970   -1.2340   56.6054 H       1  ZINC000425987417    0.0600
     47 H47       -10.7144    0.1292   57.7352 H       1  ZINC000425987417    0.0700
     48 H48       -11.9965   -5.0895   54.0544 H       1  ZINC000425987417    0.0500
     49 H49       -12.8754   -3.9676   52.9881 H       1  ZINC000425987417    0.0900
     50 H50       -11.2252   -2.5198   54.9190 H       1  ZINC000425987417    0.1200
     51 H51       -10.2477   -3.6565   53.9595 H       1  ZINC000425987417    0.1100
@<TRIPOS>BOND
     1     1     2    1
     2     1    27    1
     3     1    28    1
     4     1    29    1
     5     2     3    1
     6     2    30    1
     7     2    31    1
     8     3     4    1
     9     3    21    1
    10     4     5    1
    11     4    32    1
    12     4    33    1
    13     5     6    1
    14     5    34    1
    15     5    35    1
    16     6     7   am
    17     6    36    1
    18     7     8    2
    19     7     9   am
    20     9    18    1
    21     9    10    1
    22    10    11    1
    23    10    37    1
    24    10    38    1
    25    11    12    1
    26    11    39    1
    27    11    40    1
    28    12    17   ar
    29    12    13   ar
    30    13    14   ar
    31    13    41    1
    32    14    15   ar
    33    14    42    1
    34    15    16   ar
    35    15    43    1
    36    16    17   ar
    37    16    44    1
    38    17    18    1
    39    18    19    1
    40    18    20    1
    41    20    45    1
    42    20    46    1
    43    20    47    1
    44    21    22    1
    45    21    48    1
    46    21    49    1
    47    22    23    1
    48    22    50    1
    49    22    51    1
    50    23    24    1
    51    23    25    1
    52    23    26    1
@<TRIPOS>SUBSTRUCTURE
     1 ZINC000425987417        1 TEMP              0 ****  ****    0 ROOT


##########                                Name:    ZINC000892249927
##########                DOCK_Rotatable_Bonds:                   8
##########                         Heavy_Atoms:                  27
##########                    Molecular_Weight:             364.487
##########                DOCK_Rotatable_Bonds:                   8
##########                       Formal_Charge:          -0.0300015
##########                     HBond_Acceptors:                   4
##########                        HBond_Donors:                   1
##########                         Heavy_Atoms:                  27
##########                          Grid_Score:          -34.542320
##########                     Grid_vdw_energy:          -33.296425
##########                      Grid_es_energy:           -1.245895
##########           Internal_energy_repulsive:           14.116972

@<TRIPOS>MOLECULE
ZINC000892249927
 55 58 1 0 0
SMALL
USER_CHARGES


@<TRIPOS>ATOM
      1 O1        -15.5213   -2.4411   53.6764 O.2     1  ZINC000892249927   -0.5300
      2 C2        -15.3105   -1.9002   54.7413 C.2     1  ZINC000892249927    0.5100
      3 C3        -16.2049   -0.7806   55.2079 C.3     1  ZINC000892249927   -0.1400
      4 C4        -17.5377   -1.3588   55.6878 C.3     1  ZINC000892249927   -0.1000
      5 C5        -17.9671   -0.6506   56.9742 C.3     1  ZINC000892249927   -0.0800
      6 C6        -17.0207   -1.0160   58.0887 C.ar    1  ZINC000892249927   -0.0900
      7 C7        -16.1421   -0.0720   58.5867 C.ar    1  ZINC000892249927   -0.1100
      8 C8        -15.2740   -0.4072   59.6089 C.ar    1  ZINC000892249927   -0.1100
      9 C9        -15.2848   -1.6861   60.1336 C.ar    1  ZINC000892249927   -0.0500
     10 C10       -14.3381   -2.0515   61.2477 C.3     1  ZINC000892249927   -0.1200
     11 C11       -12.9489   -1.4105   61.2329 C.3     1  ZINC000892249927   -0.1800
     12 C12       -13.9877   -0.9618   62.2628 C.3     1  ZINC000892249927   -0.1700
     13 C13       -16.1645   -2.6295   59.6365 C.ar    1  ZINC000892249927   -0.1200
     14 C14       -17.0352   -2.2933   58.6169 C.ar    1  ZINC000892249927   -0.1100
     15 N15       -14.2797   -2.3042   55.5101 N.am    1  ZINC000892249927   -0.7300
     16 C16       -13.4103   -3.3925   55.0565 C.3     1  ZINC000892249927    0.1400
     17 H17       -13.2480   -3.3060   53.9821 H       1  ZINC000892249927    0.1000
     18 C18       -14.0701   -4.7393   55.3682 C.3     1  ZINC000892249927   -0.1700
     19 C19       -14.2241   -4.8844   56.8844 C.3     1  ZINC000892249927    0.0600
     20 O20       -12.9421   -4.7705   57.5052 O.3     1  ZINC000892249927   -0.3700
     21 C21       -12.2980   -3.5136   57.2876 C.3     1  ZINC000892249927    0.1400
     22 H22       -12.9294   -2.7108   57.6683 H       1  ZINC000892249927    0.0700
     23 C23       -10.9740   -3.4960   58.0073 C.ar    1  ZINC000892249927   -0.1400
     24 C24       -10.4187   -2.2969   58.4260 C.ar    1  ZINC000892249927   -0.0700
     25 C25        -9.1989   -2.3288   59.0850 C.ar    1  ZINC000892249927   -0.1700
     26 C26        -8.5819   -3.5463   59.3008 C.ar    1  ZINC000892249927    0.1000
     27 N27        -9.1399   -4.6679   58.8883 N.ar    1  ZINC000892249927   -0.4900
     28 C28       -10.3009   -4.6758   58.2634 C.ar    1  ZINC000892249927    0.1300
     29 C29       -12.0657   -3.3121   55.7859 C.3     1  ZINC000892249927   -0.1500
     30 H30       -15.7232   -0.2486   56.0284 H       1  ZINC000892249927    0.0900
     31 H31       -16.3840   -0.0909   54.3831 H       1  ZINC000892249927    0.0900
     32 H32       -18.2964   -1.2088   54.9197 H       1  ZINC000892249927    0.0700
     33 H33       -17.4224   -2.4253   55.8812 H       1  ZINC000892249927    0.0700
     34 H34       -17.9468    0.4281   56.8194 H       1  ZINC000892249927    0.0700
     35 H35       -18.9778   -0.9608   57.2397 H       1  ZINC000892249927    0.0700
     36 H36       -16.1336    0.9271   58.1768 H       1  ZINC000892249927    0.1200
     37 H37       -14.5870    0.3301   59.9975 H       1  ZINC000892249927    0.1200
     38 H38       -14.4167   -3.0749   61.6146 H       1  ZINC000892249927    0.1100
     39 H39       -12.1132   -2.0122   61.5902 H       1  ZINC000892249927    0.1000
     40 H40       -12.7198   -0.7244   60.4175 H       1  ZINC000892249927    0.1000
     41 H41       -14.4419    0.0193   62.1249 H       1  ZINC000892249927    0.1000
     42 H42       -13.8353   -1.2684   63.2977 H       1  ZINC000892249927    0.1000
     43 H43       -16.1732   -3.6286   60.0466 H       1  ZINC000892249927    0.1200
     44 H44       -17.7224   -3.0305   58.2286 H       1  ZINC000892249927    0.1200
     45 H45       -14.1136   -1.8742   56.3635 H       1  ZINC000892249927    0.4000
     46 H46       -15.0520   -4.7817   54.8967 H       1  ZINC000892249927    0.0800
     47 H47       -13.4464   -5.5476   54.9865 H       1  ZINC000892249927    0.0800
     48 H48       -14.8807   -4.0996   57.2599 H       1  ZINC000892249927    0.0500
     49 H49       -14.6541   -5.8592   57.1145 H       1  ZINC000892249927    0.1000
     50 H50       -10.9237   -1.3599   58.2430 H       1  ZINC000892249927    0.1300
     51 H51        -8.7369   -1.4138   59.4249 H       1  ZINC000892249927    0.1400
     52 H52        -7.6317   -3.5798   59.8129 H       1  ZINC000892249927    0.1600
     53 H53       -10.7268   -5.6143   57.9403 H       1  ZINC000892249927    0.1600
     54 H54       -11.4013   -4.0913   55.4122 H       1  ZINC000892249927    0.0900
     55 H55       -11.6146   -2.3346   55.6150 H       1  ZINC000892249927    0.0800
@<TRIPOS>BOND
     1     1     2    2
     2     2     3    1
     3     2    15   am
     4     3     4    1
     5     3    30    1
     6     3    31    1
     7     4     5    1
     8     4    32    1
     9     4    33    1
    10     5     6    1
    11     5    34    1
    12     5    35    1
    13     6    14   ar
    14     6     7   ar
    15     7     8   ar
    16     7    36    1
    17     8     9   ar
    18     8    37    1
    19     9    10    1
    20     9    13   ar
    21    10    12    1
    22    10    11    1
    23    10    38    1
    24    11    12    1
    25    11    39    1
    26    11    40    1
    27    12    41    1
    28    12    42    1
    29    13    14   ar
    30    13    43    1
    31    14    44    1
    32    15    16    1
    33    15    45    1
    34    16    17    1
    35    16    29    1
    36    16    18    1
    37    18    19    1
    38    18    46    1
    39    18    47    1
    40    19    20    1
    41    19    48    1
    42    19    49    1
    43    20    21    1
    44    21    22    1
    45    21    23    1
    46    21    29    1
    47    23    28   ar
    48    23    24   ar
    49    24    25   ar
    50    24    50    1
    51    25    26   ar
    52    25    51    1
    53    26    27   ar
    54    26    52    1
    55    27    28   ar
    56    28    53    1
    57    29    54    1
    58    29    55    1
@<TRIPOS>SUBSTRUCTURE
     1 ZINC000892249927        1 TEMP              0 ****  ****    0 ROOT


##########                                Name:    ZINC000279331220
##########                DOCK_Rotatable_Bonds:                   9
##########                         Heavy_Atoms:                  24
##########                    Molecular_Weight:             328.411
##########                DOCK_Rotatable_Bonds:                   9
##########                       Formal_Charge:          -0.0100001
##########                     HBond_Acceptors:                   5
##########                        HBond_Donors:                   0
##########                         Heavy_Atoms:                  24
##########                          Grid_Score:          -34.541489
##########                     Grid_vdw_energy:          -34.799965
##########                      Grid_es_energy:            0.258477
##########           Internal_energy_repulsive:           23.813890

@<TRIPOS>MOLECULE
ZINC000279331220
 48 49 1 0 0
SMALL
USER_CHARGES


@<TRIPOS>ATOM
      1 C1         -8.3179    1.0987   56.5920 C.3     1  ZINC000279331220   -0.1500
      2 C2         -9.2884    1.9928   55.8176 C.3     1  ZINC000279331220    0.0500
      3 O3         -9.8827    1.2432   54.7560 O.3     1  ZINC000279331220   -0.3000
      4 C4         -9.0601    0.8339   53.7533 C.ar    1  ZINC000279331220    0.1000
      5 C5         -7.9520    1.5918   53.4116 C.ar    1  ZINC000279331220   -0.1700
      6 C6         -7.1163    1.1740   52.3921 C.ar    1  ZINC000279331220   -0.1200
      7 C7         -7.3840    0.0010   51.7119 C.ar    1  ZINC000279331220   -0.1200
      8 C8         -8.4887   -0.7600   52.0478 C.ar    1  ZINC000279331220   -0.1700
      9 C9         -9.3264   -0.3504   53.0721 C.ar    1  ZINC000279331220    0.1000
     10 O10       -10.4132   -1.0976   53.4036 O.3     1  ZINC000279331220   -0.3000
     11 C11       -10.5805   -2.3397   52.7172 C.3     1  ZINC000279331220    0.0600
     12 C12       -11.7734   -3.0930   53.3090 C.3     1  ZINC000279331220   -0.1100
     13 C13       -11.5786   -3.2519   54.8181 C.3     1  ZINC000279331220   -0.1300
     14 C14       -12.6818   -4.1116   55.3793 C.2     1  ZINC000279331220    0.5200
     15 O15       -13.5886   -4.4786   54.6627 O.2     1  ZINC000279331220   -0.5200
     16 N16       -12.6607   -4.4726   56.6776 N.am    1  ZINC000279331220   -0.5700
     17 C17       -13.7323   -5.3098   57.2226 C.3     1  ZINC000279331220    0.0800
     18 C18       -11.6192   -4.0494   57.5020 C.ar    1  ZINC000279331220    0.3400
     19 N19       -10.5922   -4.8535   57.7262 N.ar    1  ZINC000279331220   -0.4800
     20 C20        -9.5862   -4.4921   58.4995 C.ar    1  ZINC000279331220    0.1100
     21 C21        -9.5699   -3.2522   59.1068 C.ar    1  ZINC000279331220   -0.1600
     22 C22       -10.6286   -2.3788   58.8972 C.ar    1  ZINC000279331220   -0.0700
     23 C23       -11.6662   -2.7841   58.0766 C.ar    1  ZINC000279331220   -0.1200
     24 C24       -12.8370   -1.8711   57.8183 C.3     1  ZINC000279331220   -0.1100
     25 H25        -7.8646    1.6704   57.4017 H       1  ZINC000279331220    0.0800
     26 H26        -8.8594    0.2483   57.0065 H       1  ZINC000279331220    0.0700
     27 H27        -7.5385    0.7405   55.9195 H       1  ZINC000279331220    0.0700
     28 H28       -10.0678    2.3510   56.4900 H       1  ZINC000279331220    0.0600
     29 H29        -8.7470    2.8433   55.4031 H       1  ZINC000279331220    0.0600
     30 H30        -7.7411    2.5091   53.9411 H       1  ZINC000279331220    0.1300
     31 H31        -6.2528    1.7657   52.1267 H       1  ZINC000279331220    0.1300
     32 H32        -6.7290   -0.3218   50.9161 H       1  ZINC000279331220    0.1300
     33 H33        -8.6959   -1.6759   51.5142 H       1  ZINC000279331220    0.1300
     34 H34       -10.7598   -2.1488   51.6591 H       1  ZINC000279331220    0.0600
     35 H35        -9.6786   -2.9414   52.8300 H       1  ZINC000279331220    0.0600
     36 H36       -12.6884   -2.5322   53.1178 H       1  ZINC000279331220    0.0800
     37 H37       -11.8473   -4.0772   52.8466 H       1  ZINC000279331220    0.0800
     38 H38       -10.6155   -3.7239   55.0125 H       1  ZINC000279331220    0.1000
     39 H39       -11.6049   -2.2712   55.2932 H       1  ZINC000279331220    0.1000
     40 H40       -13.5066   -6.3589   57.0313 H       1  ZINC000279331220    0.0700
     41 H41       -13.8111   -5.1453   58.2973 H       1  ZINC000279331220    0.0800
     42 H42       -14.6763   -5.0483   56.7448 H       1  ZINC000279331220    0.0800
     43 H43        -8.7652   -5.1751   58.6601 H       1  ZINC000279331220    0.1600
     44 H44        -8.7425   -2.9650   59.7386 H       1  ZINC000279331220    0.1400
     45 H45       -10.6397   -1.4033   59.3606 H       1  ZINC000279331220    0.1400
     46 H46       -12.6706   -1.3197   56.8928 H       1  ZINC000279331220    0.0800
     47 H47       -13.7473   -2.4639   57.7293 H       1  ZINC000279331220    0.0700
     48 H48       -12.9398   -1.1691   58.6458 H       1  ZINC000279331220    0.0700
@<TRIPOS>BOND
     1     1     2    1
     2     1    25    1
     3     1    26    1
     4     1    27    1
     5     2     3    1
     6     2    28    1
     7     2    29    1
     8     3     4    1
     9     4     9   ar
    10     4     5   ar
    11     5     6   ar
    12     5    30    1
    13     6     7   ar
    14     6    31    1
    15     7     8   ar
    16     7    32    1
    17     8     9   ar
    18     8    33    1
    19     9    10    1
    20    10    11    1
    21    11    12    1
    22    11    34    1
    23    11    35    1
    24    12    13    1
    25    12    36    1
    26    12    37    1
    27    13    14    1
    28    13    38    1
    29    13    39    1
    30    14    15    2
    31    14    16   am
    32    16    17    1
    33    16    18    1
    34    17    40    1
    35    17    41    1
    36    17    42    1
    37    18    23   ar
    38    18    19   ar
    39    19    20   ar
    40    20    21   ar
    41    20    43    1
    42    21    22   ar
    43    21    44    1
    44    22    23   ar
    45    22    45    1
    46    23    24    1
    47    24    46    1
    48    24    47    1
    49    24    48    1
@<TRIPOS>SUBSTRUCTURE
     1 ZINC000279331220        1 TEMP              0 ****  ****    0 ROOT


##########                                Name:    ZINC000821442454
##########                DOCK_Rotatable_Bonds:                   6
##########                         Heavy_Atoms:                  26
##########                    Molecular_Weight:             398.873
##########                DOCK_Rotatable_Bonds:                   6
##########                       Formal_Charge:          -0.0399996
##########                     HBond_Acceptors:                  11
##########                        HBond_Donors:                   2
##########                         Heavy_Atoms:                  26
##########                          Grid_Score:          -34.540535
##########                     Grid_vdw_energy:          -34.137344
##########                      Grid_es_energy:           -0.403192
##########           Internal_energy_repulsive:            9.527705

@<TRIPOS>MOLECULE
ZINC000821442454
 45 47 1 0 0
SMALL
USER_CHARGES


@<TRIPOS>ATOM
      1 C1        -13.3204   -4.3560   54.6345 C.3     1  ZINC000821442454   -0.1500
      2 C2        -12.6228   -3.9147   53.3462 C.3     1  ZINC000821442454   -0.6300
      3 S3        -11.0476   -3.1136   53.7554 S.o2    1  ZINC000821442454    2.6000
      4 O4        -10.2757   -3.9412   54.6145 O.2     1  ZINC000821442454   -0.9500
      5 O5        -10.4737   -2.5219   52.5978 O.2     1  ZINC000821442454   -0.9500
      6 N6        -11.4736   -1.8249   54.7042 N.am    1  ZINC000821442454   -1.0000
      7 C7        -12.3626   -0.7758   54.1866 C.3     1  ZINC000821442454    0.1100
      8 C8        -11.6832    0.5840   54.3764 C.3     1  ZINC000821442454   -0.1300
      9 C9        -11.2974    0.7563   55.8472 C.3     1  ZINC000821442454   -0.1100
     10 C10       -10.3065   -0.3389   56.2481 C.3     1  ZINC000821442454   -0.1200
     11 H11        -9.4237   -0.2816   55.6113 H       1  ZINC000821442454    0.1100
     12 C12        -9.9018   -0.1489   57.6873 C.2     1  ZINC000821442454    0.5300
     13 O13        -8.9018    0.4819   57.9578 O.2     1  ZINC000821442454   -0.5100
     14 N14       -10.6510   -0.6800   58.6737 N.am    1  ZINC000821442454   -0.6700
     15 C15       -10.2754   -0.5036   60.0095 C.ar    1  ZINC000821442454    0.1800
     16 C16       -10.5876    0.6792   60.6675 C.ar    1  ZINC000821442454   -0.1200
     17 C17       -10.2189    0.8551   61.9848 C.ar    1  ZINC000821442454   -0.0500
     18 C18        -9.5324   -0.1545   62.6563 C.ar    1  ZINC000821442454   -0.0300
     19 C19        -9.1351    0.0330   64.0739 C.2     1  ZINC000821442454    0.2200
     20 N20        -9.5233    1.0022   64.8789 N.2     1  ZINC000821442454   -0.2900
     21 N21        -8.9611    0.8134   66.0231 N.pl3   1  ZINC000821442454   -0.2200
     22 N22        -8.2294   -0.2443   65.9687 N.2     1  ZINC000821442454   -0.0400
     23 N23        -8.3162   -0.7534   64.7868 N.2     1  ZINC000821442454   -0.2700
     24 C24        -9.2195   -1.3410   61.9950 C.ar    1  ZINC000821442454   -0.0500
     25 C25        -9.5948   -1.5152   60.6790 C.ar    1  ZINC000821442454   -0.0800
     26 Cl26       -9.2058   -2.9925   59.8542 Cl      1  ZINC000821442454   -0.0500
     27 C27       -10.9748   -1.7121   56.0815 C.3     1  ZINC000821442454    0.1400
     28 H28       -12.6831   -5.0597   55.1699 H       1  ZINC000821442454    0.0700
     29 H29       -13.5079   -3.4852   55.2627 H       1  ZINC000821442454    0.0700
     30 H30       -14.2669   -4.8373   54.3886 H       1  ZINC000821442454    0.0800
     31 H31       -12.4353   -4.7856   52.7180 H       1  ZINC000821442454    0.1300
     32 H32       -13.2602   -3.2109   52.8108 H       1  ZINC000821442454    0.1300
     33 H33       -12.5501   -0.9459   53.1264 H       1  ZINC000821442454    0.1000
     34 H34       -13.3052   -0.7928   54.7338 H       1  ZINC000821442454    0.0700
     35 H35       -10.7874    0.6326   53.7572 H       1  ZINC000821442454    0.0700
     36 H36       -12.3709    1.3781   54.0852 H       1  ZINC000821442454    0.0800
     37 H37       -10.8359    1.7334   55.9897 H       1  ZINC000821442454    0.0700
     38 H38       -12.1904    0.6829   56.4679 H       1  ZINC000821442454    0.0800
     39 H39       -11.4507   -1.1845   58.4573 H       1  ZINC000821442454    0.4200
     40 H40       -11.1195    1.4619   60.1470 H       1  ZINC000821442454    0.1600
     41 H41       -10.4617    1.7751   62.4955 H       1  ZINC000821442454    0.1500
     42 H42        -9.0718    1.3796   66.8028 H       1  ZINC000821442454    0.4800
     43 H43        -8.6874   -2.1247   62.5136 H       1  ZINC000821442454    0.1500
     44 H44       -11.8029   -1.8032   56.7844 H       1  ZINC000821442454    0.0800
     45 H45       -10.2447   -2.4991   56.2700 H       1  ZINC000821442454    0.1000
@<TRIPOS>BOND
     1     1     2    1
     2     1    28    1
     3     1    29    1
     4     1    30    1
     5     2     3    1
     6     2    31    1
     7     2    32    1
     8     3     4    2
     9     3     5    2
    10     3     6   am
    11     6    27    1
    12     6     7    1
    13     7     8    1
    14     7    33    1
    15     7    34    1
    16     8     9    1
    17     8    35    1
    18     8    36    1
    19     9    10    1
    20     9    37    1
    21     9    38    1
    22    10    11    1
    23    10    12    1
    24    10    27    1
    25    12    13    2
    26    12    14   am
    27    14    15    1
    28    14    39    1
    29    15    25   ar
    30    15    16   ar
    31    16    17   ar
    32    16    40    1
    33    17    18   ar
    34    17    41    1
    35    18    19    1
    36    18    24   ar
    37    19    23    1
    38    19    20    2
    39    20    21    1
    40    21    22    1
    41    21    42    1
    42    22    23    2
    43    24    25   ar
    44    24    43    1
    45    25    26    1
    46    27    44    1
    47    27    45    1
@<TRIPOS>SUBSTRUCTURE
     1 ZINC000821442454        1 TEMP              0 ****  ****    0 ROOT


##########                                Name:    ZINC000986832075
##########                DOCK_Rotatable_Bonds:                   7
##########                         Heavy_Atoms:                  25
##########                    Molecular_Weight:             347.433
##########                DOCK_Rotatable_Bonds:                   7
##########                       Formal_Charge:          -0.0200006
##########                     HBond_Acceptors:                   6
##########                        HBond_Donors:                   1
##########                         Heavy_Atoms:                  25
##########                          Grid_Score:          -34.536613
##########                     Grid_vdw_energy:          -34.068302
##########                      Grid_es_energy:           -0.468312
##########           Internal_energy_repulsive:           39.636196

@<TRIPOS>MOLECULE
ZINC000986832075
 51 53 1 0 0
SMALL
USER_CHARGES


@<TRIPOS>ATOM
      1 C1        -13.0267   -1.4425   51.8182 C.3     1  ZINC000986832075   -0.1700
      2 C2        -11.7536   -1.8466   52.5645 C.3     1  ZINC000986832075    0.1500
      3 H3        -11.3295   -2.7383   52.1031 H       1  ZINC000986832075    0.0900
      4 N4        -10.7809   -0.7530   52.4985 N.am    1  ZINC000986832075   -0.7200
      5 C5         -9.4814   -1.0205   52.2617 C.2     1  ZINC000986832075    0.5600
      6 O6         -9.1166   -2.1686   52.1016 O.2     1  ZINC000986832075   -0.5100
      7 C7         -8.4985    0.0842   52.1968 C.ar    1  ZINC000986832075   -0.1300
      8 C8         -8.8018    1.3479   52.7135 C.ar    1  ZINC000986832075   -0.1100
      9 C9         -7.8553    2.3501   52.6319 C.ar    1  ZINC000986832075    0.0900
     10 N10        -6.6800    2.1299   52.0768 N.ar    1  ZINC000986832075   -0.4400
     11 C11        -6.3507    0.9561   51.5771 C.ar    1  ZINC000986832075    0.0700
     12 C12        -7.2359   -0.1082   51.6212 C.ar    1  ZINC000986832075    0.1100
     13 F13        -6.8916   -1.3090   51.1070 F       1  ZINC000986832075   -0.1000
     14 C14       -12.0916   -2.1409   54.0274 C.3     1  ZINC000986832075   -0.1000
     15 C15       -11.8038   -3.6130   54.3308 C.3     1  ZINC000986832075   -0.1300
     16 C16       -12.1758   -3.9124   55.7865 C.3     1  ZINC000986832075    0.1100
     17 N17       -11.4675   -2.9666   56.6596 N.am    1  ZINC000986832075   -0.6100
     18 C18       -10.7077   -3.4111   57.6803 C.2     1  ZINC000986832075    0.5200
     19 O19       -10.6038   -4.6019   57.8850 O.2     1  ZINC000986832075   -0.5300
     20 C20        -9.9874   -2.4284   58.5670 C.3     1  ZINC000986832075   -0.0800
     21 H21        -9.3960   -1.7499   57.9522 H       1  ZINC000986832075    0.0900
     22 C22        -9.0640   -3.1860   59.5233 C.3     1  ZINC000986832075   -0.1400
     23 C23       -11.0095   -1.6254   59.3742 C.3     1  ZINC000986832075   -0.1400
     24 C24       -10.9350   -1.7179   60.8996 C.3     1  ZINC000986832075   -0.1800
     25 C25       -10.4913   -0.4381   60.1882 C.3     1  ZINC000986832075   -0.1700
     26 C26       -11.6028   -1.5270   56.3988 C.3     1  ZINC000986832075    0.1000
     27 C27       -11.2372   -1.2545   54.9363 C.3     1  ZINC000986832075   -0.1300
     28 H28       -12.7859   -1.2329   50.7760 H       1  ZINC000986832075    0.0600
     29 H29       -13.7503   -2.2561   51.8674 H       1  ZINC000986832075    0.0700
     30 H30       -13.4508   -0.5507   52.2796 H       1  ZINC000986832075    0.0600
     31 H31       -11.0723    0.1636   52.6251 H       1  ZINC000986832075    0.4000
     32 H32        -9.7624    1.5373   53.1694 H       1  ZINC000986832075    0.1500
     33 H33        -8.0814    3.3289   53.0285 H       1  ZINC000986832075    0.1700
     34 H34        -5.3764    0.8210   51.1311 H       1  ZINC000986832075    0.1800
     35 H35       -13.1467   -1.9332   54.2052 H       1  ZINC000986832075    0.0800
     36 H36       -12.3952   -4.2437   53.6671 H       1  ZINC000986832075    0.0700
     37 H37       -10.7439   -3.8157   54.1772 H       1  ZINC000986832075    0.0800
     38 H38       -13.2515   -3.7974   55.9198 H       1  ZINC000986832075    0.0700
     39 H39       -11.8814   -4.9316   56.0367 H       1  ZINC000986832075    0.0900
     40 H40        -9.6420   -3.9270   60.0755 H       1  ZINC000986832075    0.0600
     41 H41        -8.2819   -3.6868   58.9527 H       1  ZINC000986832075    0.0600
     42 H42        -8.6104   -2.4838   60.2229 H       1  ZINC000986832075    0.0700
     43 H43       -11.9974   -1.5334   58.9228 H       1  ZINC000986832075    0.1100
     44 H44       -11.8741   -1.6870   61.4521 H       1  ZINC000986832075    0.1000
     45 H45       -10.1579   -2.3508   61.3281 H       1  ZINC000986832075    0.0900
     46 H46        -9.4223   -0.2290   60.1487 H       1  ZINC000986832075    0.0900
     47 H47       -11.1385    0.4349   60.2728 H       1  ZINC000986832075    0.1000
     48 H48       -12.6317   -1.2176   56.5820 H       1  ZINC000986832075    0.0700
     49 H49       -10.9302   -0.9723   57.0531 H       1  ZINC000986832075    0.0900
     50 H50       -10.1827   -1.4793   54.7769 H       1  ZINC000986832075    0.0800
     51 H51       -11.4254   -0.2063   54.7036 H       1  ZINC000986832075    0.0800
@<TRIPOS>BOND
     1     1     2    1
     2     1    28    1
     3     1    29    1
     4     1    30    1
     5     2     3    1
     6     2     4    1
     7     2    14    1
     8     4     5   am
     9     4    31    1
    10     5     6    2
    11     5     7    1
    12     7    12   ar
    13     7     8   ar
    14     8     9   ar
    15     8    32    1
    16     9    10   ar
    17     9    33    1
    18    10    11   ar
    19    11    12   ar
    20    11    34    1
    21    12    13    1
    22    14    27    1
    23    14    15    1
    24    14    35    1
    25    15    16    1
    26    15    36    1
    27    15    37    1
    28    16    17    1
    29    16    38    1
    30    16    39    1
    31    17    18   am
    32    17    26    1
    33    18    19    2
    34    18    20    1
    35    20    21    1
    36    20    22    1
    37    20    23    1
    38    22    40    1
    39    22    41    1
    40    22    42    1
    41    23    25    1
    42    23    24    1
    43    23    43    1
    44    24    25    1
    45    24    44    1
    46    24    45    1
    47    25    46    1
    48    25    47    1
    49    26    27    1
    50    26    48    1
    51    26    49    1
    52    27    50    1
    53    27    51    1
@<TRIPOS>SUBSTRUCTURE
     1 ZINC000986832075        1 TEMP              0 ****  ****    0 ROOT


##########                                Name:    ZINC000441887161
##########                DOCK_Rotatable_Bonds:                   6
##########                         Heavy_Atoms:                  27
##########                    Molecular_Weight:             383.514
##########                DOCK_Rotatable_Bonds:                   6
##########                       Formal_Charge:          -0.0300002
##########                     HBond_Acceptors:                   6
##########                        HBond_Donors:                   1
##########                         Heavy_Atoms:                  27
##########                          Grid_Score:          -34.534378
##########                     Grid_vdw_energy:          -32.315315
##########                      Grid_es_energy:           -2.219062
##########           Internal_energy_repulsive:           27.854734

@<TRIPOS>MOLECULE
ZINC000441887161
 52 54 1 0 0
SMALL
USER_CHARGES


@<TRIPOS>ATOM
      1 C1         -8.3869    0.4978   64.1003 C.3     1  ZINC000441887161   -0.1200
      2 C2         -9.3468    0.0069   63.0474 C.ar    1  ZINC000441887161   -0.0700
      3 C3         -9.0317   -1.1049   62.2894 C.ar    1  ZINC000441887161   -0.1200
      4 C4         -9.9124   -1.5553   61.3234 C.ar    1  ZINC000441887161   -0.0900
      5 C5        -11.1082   -0.8941   61.1162 C.ar    1  ZINC000441887161   -0.1100
      6 C6        -12.0679   -1.3847   60.0631 C.3     1  ZINC000441887161    0.1900
      7 H7        -12.6738   -0.5514   59.7070 H       1  ZINC000441887161    0.1000
      8 C8        -11.2812   -1.9795   58.8935 C.3     1  ZINC000441887161    0.1000
      9 N9        -10.4323   -0.9440   58.2989 N.pl3   1  ZINC000441887161   -0.4600
     10 C10       -10.8333    0.0356   57.4311 C.2     1  ZINC000441887161   -0.0500
     11 C11        -9.7413    0.7669   57.1373 C.2     1  ZINC000441887161   -0.0200
     12 N12        -8.7019    0.2479   57.8075 N.2     1  ZINC000441887161   -0.4900
     13 C13        -9.1092   -0.7741   58.5094 C.2     1  ZINC000441887161    0.1800
     14 N14       -12.9401   -2.4120   60.6378 N.am    1  ZINC000441887161   -1.1100
     15 S15       -14.5507   -2.4403   60.2537 S.o2    1  ZINC000441887161    2.6900
     16 O16       -15.0814   -3.6226   60.8366 O.2     1  ZINC000441887161   -0.9600
     17 O17       -15.0533   -1.1414   60.5358 O.2     1  ZINC000441887161   -0.9500
     18 C18       -14.6670   -2.6506   58.5082 C.ar    1  ZINC000441887161   -0.6800
     19 C19       -15.2159   -1.6514   57.7267 C.ar    1  ZINC000441887161   -0.0300
     20 C20       -15.3073   -1.8165   56.3572 C.ar    1  ZINC000441887161   -0.1300
     21 C21       -14.8492   -2.9805   55.7693 C.ar    1  ZINC000441887161   -0.0200
     22 C22       -14.9492   -3.1606   54.2764 C.3     1  ZINC000441887161   -0.1300
     23 C23       -14.2989   -3.9794   56.5508 C.ar    1  ZINC000441887161   -0.1000
     24 C24       -13.7991   -5.2484   55.9098 C.3     1  ZINC000441887161   -0.1200
     25 C25       -14.2041   -3.8128   57.9195 C.ar    1  ZINC000441887161   -0.0100
     26 C26       -11.4242    0.2173   61.8755 C.ar    1  ZINC000441887161   -0.0700
     27 C27       -12.7282    0.9381   61.6499 C.3     1  ZINC000441887161   -0.1300
     28 C28       -10.5454    0.6653   62.8437 C.ar    1  ZINC000441887161   -0.1200
     29 H29        -8.6072    0.0089   65.0493 H       1  ZINC000441887161    0.0700
     30 H30        -7.3661    0.2630   63.7991 H       1  ZINC000441887161    0.0700
     31 H31        -8.4932    1.5766   64.2142 H       1  ZINC000441887161    0.0700
     32 H32        -8.0972   -1.6218   62.4513 H       1  ZINC000441887161    0.1200
     33 H33        -9.6657   -2.4237   60.7306 H       1  ZINC000441887161    0.1200
     34 H34       -10.6577   -2.7978   59.2537 H       1  ZINC000441887161    0.1100
     35 H35       -11.9757   -2.3555   58.1422 H       1  ZINC000441887161    0.1000
     36 H36       -11.8333    0.1918   57.0540 H       1  ZINC000441887161    0.1700
     37 H37        -9.7084    1.6214   56.4777 H       1  ZINC000441887161    0.1600
     38 H38        -8.4896   -1.3866   59.1476 H       1  ZINC000441887161    0.2000
     39 H39       -12.5741   -3.0756   61.2432 H       1  ZINC000441887161    0.4200
     40 H40       -15.5738   -0.7419   58.1861 H       1  ZINC000441887161    0.1300
     41 H41       -15.7368   -1.0360   55.7466 H       1  ZINC000441887161    0.1300
     42 H42       -14.0436   -2.7810   53.8032 H       1  ZINC000441887161    0.0800
     43 H43       -15.0635   -4.2197   54.0451 H       1  ZINC000441887161    0.0800
     44 H44       -15.8128   -2.6115   53.9012 H       1  ZINC000441887161    0.0700
     45 H45       -12.7490   -5.1310   55.6419 H       1  ZINC000441887161    0.0800
     46 H46       -13.9047   -6.0759   56.6113 H       1  ZINC000441887161    0.0700
     47 H47       -14.3819   -5.4562   55.0124 H       1  ZINC000441887161    0.0700
     48 H48       -13.7743   -4.5932   58.5300 H       1  ZINC000441887161    0.1400
     49 H49       -13.4971    0.5073   62.2914 H       1  ZINC000441887161    0.0800
     50 H50       -12.6056    1.9945   61.8889 H       1  ZINC000441887161    0.0700
     51 H51       -13.0252    0.8338   60.6064 H       1  ZINC000441887161    0.0600
     52 H52       -10.7922    1.5335   63.4369 H       1  ZINC000441887161    0.1300
@<TRIPOS>BOND
     1     1     2    1
     2     1    29    1
     3     1    30    1
     4     1    31    1
     5     2    28   ar
     6     2     3   ar
     7     3     4   ar
     8     3    32    1
     9     4     5   ar
    10     4    33    1
    11     5     6    1
    12     5    26   ar
    13     6     7    1
    14     6     8    1
    15     6    14    1
    16     8     9    1
    17     8    34    1
    18     8    35    1
    19     9    13    1
    20     9    10    1
    21    10    11    2
    22    10    36    1
    23    11    12    1
    24    11    37    1
    25    12    13    2
    26    13    38    1
    27    14    15   am
    28    14    39    1
    29    15    16    2
    30    15    17    2
    31    15    18    1
    32    18    25   ar
    33    18    19   ar
    34    19    20   ar
    35    19    40    1
    36    20    21   ar
    37    20    41    1
    38    21    22    1
    39    21    23   ar
    40    22    42    1
    41    22    43    1
    42    22    44    1
    43    23    24    1
    44    23    25   ar
    45    24    45    1
    46    24    46    1
    47    24    47    1
    48    25    48    1
    49    26    27    1
    50    26    28   ar
    51    27    49    1
    52    27    50    1
    53    27    51    1
    54    28    52    1
@<TRIPOS>SUBSTRUCTURE
     1 ZINC000441887161        1 TEMP              0 ****  ****    0 ROOT


##########                                Name:    ZINC000603906271
##########                DOCK_Rotatable_Bonds:                   8
##########                         Heavy_Atoms:                  29
##########                    Molecular_Weight:             391.473
##########                DOCK_Rotatable_Bonds:                   8
##########                       Formal_Charge:           0.0499998
##########                     HBond_Acceptors:                   7
##########                        HBond_Donors:                   3
##########                         Heavy_Atoms:                  29
##########                          Grid_Score:          -34.499187
##########                     Grid_vdw_energy:          -32.925804
##########                      Grid_es_energy:           -1.573384
##########           Internal_energy_repulsive:           23.742823

@<TRIPOS>MOLECULE
ZINC000603906271
 54 56 1 0 0
SMALL
USER_CHARGES


@<TRIPOS>ATOM
      1 C1        -14.3716   -5.4620   56.6499 C.3     1  ZINC000603906271   -0.1600
      2 C2        -13.2288   -4.7349   55.9385 C.3     1  ZINC000603906271    0.1300
      3 H3        -12.6087   -5.4603   55.4117 H       1  ZINC000603906271    0.1200
      4 N4        -13.7824   -3.7770   54.9780 N.am    1  ZINC000603906271   -0.7100
      5 C5        -13.0823   -3.4484   53.8743 C.2     1  ZINC000603906271    0.5700
      6 O6        -11.9909   -3.9454   53.6764 O.2     1  ZINC000603906271   -0.5300
      7 C7        -13.6417   -2.4831   52.9041 C.ar    1  ZINC000603906271   -0.1400
      8 C8        -14.8649   -1.8614   53.1600 C.ar    1  ZINC000603906271   -0.0800
      9 C9        -15.3812   -0.9614   52.2509 C.ar    1  ZINC000603906271   -0.1200
     10 C10       -14.6895   -0.6748   51.0873 C.ar    1  ZINC000603906271   -0.0400
     11 C11       -15.2598    0.3090   50.0985 C.3     1  ZINC000603906271   -0.0400
     12 C12       -16.0706    1.3703   50.8449 C.3     1  ZINC000603906271   -0.1400
     13 C13       -14.1188    0.9832   49.3340 C.3     1  ZINC000603906271   -0.1500
     14 C14       -16.1690   -0.4275   49.1127 C.3     1  ZINC000603906271   -0.1400
     15 C15       -13.4763   -1.2873   50.8279 C.ar    1  ZINC000603906271   -0.1300
     16 C16       -12.9464   -2.1853   51.7313 C.ar    1  ZINC000603906271   -0.0500
     17 C17       -12.3911   -4.0011   56.9537 C.2     1  ZINC000603906271    0.5100
     18 O18       -12.9271   -3.3736   57.8427 O.2     1  ZINC000603906271   -0.5100
     19 N19       -11.0464   -4.0420   56.8740 N.am    1  ZINC000603906271   -0.6700
     20 C20       -10.2685   -3.3606   57.8169 C.ar    1  ZINC000603906271    0.1300
     21 C21        -9.6871   -4.0551   58.8703 C.ar    1  ZINC000603906271   -0.1200
     22 C22        -8.9181   -3.3854   59.8034 C.ar    1  ZINC000603906271   -0.1000
     23 C23        -8.7240   -2.0231   59.6943 C.ar    1  ZINC000603906271   -0.0900
     24 C24        -9.3041   -1.3183   58.6409 C.ar    1  ZINC000603906271    0.0000
     25 C25        -9.0968    0.1465   58.5224 C.2     1  ZINC000603906271    0.2700
     26 N26        -9.1695    1.0132   59.5087 N.2     1  ZINC000603906271   -0.3000
     27 N27        -8.9073    2.2772   58.9558 N.pl3   1  ZINC000603906271   -0.4800
     28 C28        -8.6893    2.0824   57.6428 C.2     1  ZINC000603906271    0.2700
     29 N29        -8.7990    0.8043   57.3938 N.2     1  ZINC000603906271   -0.5300
     30 C30       -10.0731   -1.9928   57.6969 C.ar    1  ZINC000603906271   -0.0800
     31 H31       -14.9917   -4.7367   57.1766 H       1  ZINC000603906271    0.0700
     32 H32       -14.9775   -5.9929   55.9155 H       1  ZINC000603906271    0.0800
     33 H33       -13.9596   -6.1747   57.3644 H       1  ZINC000603906271    0.0700
     34 H34       -14.6529   -3.3794   55.1366 H       1  ZINC000603906271    0.4100
     35 H35       -15.4062   -2.0847   54.0675 H       1  ZINC000603906271    0.1300
     36 H36       -16.3276   -0.4795   52.4476 H       1  ZINC000603906271    0.1300
     37 H37       -15.4229    1.8950   51.5472 H       1  ZINC000603906271    0.0600
     38 H38       -16.4831    2.0820   50.1297 H       1  ZINC000603906271    0.0600
     39 H39       -16.8835    0.8900   51.3895 H       1  ZINC000603906271    0.0600
     40 H40       -13.5411    0.2272   48.8023 H       1  ZINC000603906271    0.0600
     41 H41       -14.5313    1.6949   48.6188 H       1  ZINC000603906271    0.0600
     42 H42       -13.4711    1.5079   50.0363 H       1  ZINC000603906271    0.0600
     43 H43       -16.9818   -0.9078   49.6575 H       1  ZINC000603906271    0.0600
     44 H44       -16.5814    0.2841   48.3976 H       1  ZINC000603906271    0.0600
     45 H45       -15.5913   -1.1836   48.5810 H       1  ZINC000603906271    0.0600
     46 H46       -12.9412   -1.0591   49.9179 H       1  ZINC000603906271    0.1400
     47 H47       -11.9990   -2.6624   51.5277 H       1  ZINC000603906271    0.1400
     48 H48       -10.6177   -4.5438   56.1632 H       1  ZINC000603906271    0.4200
     49 H49        -9.8364   -5.1209   58.9605 H       1  ZINC000603906271    0.1300
     50 H50        -8.4681   -3.9296   60.6206 H       1  ZINC000603906271    0.1400
     51 H51        -8.1229   -1.5031   60.4255 H       1  ZINC000603906271    0.1400
     52 H52        -8.8877    3.1243   59.4280 H       1  ZINC000603906271    0.4400
     53 H53        -8.4583    2.8503   56.9192 H       1  ZINC000603906271    0.2300
     54 H54       -10.5245   -1.4510   56.8789 H       1  ZINC000603906271    0.1500
@<TRIPOS>BOND
     1     1     2    1
     2     1    31    1
     3     1    32    1
     4     1    33    1
     5     2     3    1
     6     2     4    1
     7     2    17    1
     8     4     5   am
     9     4    34    1
    10     5     6    2
    11     5     7    1
    12     7    16   ar
    13     7     8   ar
    14     8     9   ar
    15     8    35    1
    16     9    10   ar
    17     9    36    1
    18    10    11    1
    19    10    15   ar
    20    11    12    1
    21    11    13    1
    22    11    14    1
    23    12    37    1
    24    12    38    1
    25    12    39    1
    26    13    40    1
    27    13    41    1
    28    13    42    1
    29    14    43    1
    30    14    44    1
    31    14    45    1
    32    15    16   ar
    33    15    46    1
    34    16    47    1
    35    17    18    2
    36    17    19   am
    37    19    20    1
    38    19    48    1
    39    20    30   ar
    40    20    21   ar
    41    21    22   ar
    42    21    49    1
    43    22    23   ar
    44    22    50    1
    45    23    24   ar
    46    23    51    1
    47    24    25    1
    48    24    30   ar
    49    25    29    1
    50    25    26    2
    51    26    27    1
    52    27    28    1
    53    27    52    1
    54    28    29    2
    55    28    53    1
    56    30    54    1
@<TRIPOS>SUBSTRUCTURE
     1 ZINC000603906271        1 TEMP              0 ****  ****    0 ROOT


##########                                Name:    ZINC000790205345
##########                DOCK_Rotatable_Bonds:                   7
##########                         Heavy_Atoms:                  28
##########                    Molecular_Weight:             382.459
##########                DOCK_Rotatable_Bonds:                   7
##########                       Formal_Charge:          -0.0299997
##########                     HBond_Acceptors:                   6
##########                        HBond_Donors:                   0
##########                         Heavy_Atoms:                  28
##########                          Grid_Score:          -34.485199
##########                     Grid_vdw_energy:          -33.778843
##########                      Grid_es_energy:           -0.706354
##########           Internal_energy_repulsive:           24.568298

@<TRIPOS>MOLECULE
ZINC000790205345
 54 56 1 0 0
SMALL
USER_CHARGES


@<TRIPOS>ATOM
      1 C1         -8.5428    0.8706   64.3435 C.3     1  ZINC000790205345   -0.1100
      2 C2         -9.2662    0.3195   63.1417 C.ar    1  ZINC000790205345   -0.1300
      3 C3         -8.6269   -0.5715   62.3002 C.ar    1  ZINC000790205345   -0.0800
      4 C4         -9.2880   -1.0786   61.1980 C.ar    1  ZINC000790205345   -0.2100
      5 C5        -10.5944   -0.6928   60.9363 C.ar    1  ZINC000790205345    0.1300
      6 O6        -11.2472   -1.1904   59.8531 O.3     1  ZINC000790205345   -0.2900
      7 C7        -11.7030   -2.5423   59.9351 C.3     1  ZINC000790205345    0.0400
      8 C8        -12.6810   -2.8111   58.8204 C.2     1  ZINC000790205345    0.5200
      9 O9        -13.8120   -2.3787   58.8886 O.2     1  ZINC000790205345   -0.5100
     10 N10       -12.2987   -3.5321   57.7478 N.am    1  ZINC000790205345   -0.6100
     11 C11       -10.9330   -4.0561   57.6665 C.3     1  ZINC000790205345    0.0700
     12 C12       -13.2488   -3.7920   56.6635 C.3     1  ZINC000790205345    0.1800
     13 H13       -14.0970   -3.1131   56.7530 H       1  ZINC000790205345    0.1200
     14 C14       -13.7412   -5.2378   56.7523 C.3     1  ZINC000790205345   -0.1600
     15 C15       -12.5687   -3.5736   55.3365 C.ar    1  ZINC000790205345   -0.0700
     16 C16       -12.4739   -4.6130   54.4298 C.ar    1  ZINC000790205345   -0.1300
     17 C17       -11.8500   -4.4167   53.2112 C.ar    1  ZINC000790205345   -0.0900
     18 C18       -11.3201   -3.1810   52.8963 C.ar    1  ZINC000790205345   -0.1500
     19 C19       -11.4141   -2.1348   53.8047 C.ar    1  ZINC000790205345    0.1800
     20 N20       -10.8783   -0.8811   53.4884 N.am    1  ZINC000790205345   -0.5700
     21 C21       -11.5169    0.4155   53.7610 C.3     1  ZINC000790205345    0.0600
     22 C22       -10.5072    1.4438   53.2156 C.3     1  ZINC000790205345    0.0400
     23 O23        -9.4169    0.6274   52.6983 O.3     1  ZINC000790205345   -0.3200
     24 C24        -9.6971   -0.6661   52.8931 C.2     1  ZINC000790205345    0.6400
     25 O25        -8.9524   -1.5644   52.5538 O.2     1  ZINC000790205345   -0.5000
     26 C26       -12.0456   -2.3337   55.0252 C.ar    1  ZINC000790205345   -0.1400
     27 C27       -11.2340    0.2017   61.7825 C.ar    1  ZINC000790205345   -0.1500
     28 C28       -10.5705    0.7016   62.8860 C.ar    1  ZINC000790205345   -0.0500
     29 C29       -11.2645    1.6728   63.8059 C.3     1  ZINC000790205345   -0.1200
     30 H30        -8.7100    0.2168   65.1995 H       1  ZINC000790205345    0.0700
     31 H31        -7.4751    0.9256   64.1311 H       1  ZINC000790205345    0.0600
     32 H32        -8.9203    1.8680   64.5688 H       1  ZINC000790205345    0.0700
     33 H33        -7.6095   -0.8713   62.5041 H       1  ZINC000790205345    0.1300
     34 H34        -8.7880   -1.7743   60.5405 H       1  ZINC000790205345    0.1300
     35 H35       -10.8530   -3.2186   59.8436 H       1  ZINC000790205345    0.1000
     36 H36       -12.1934   -2.7028   60.8952 H       1  ZINC000790205345    0.0900
     37 H37       -10.8738   -5.0015   58.2056 H       1  ZINC000790205345    0.0600
     38 H38       -10.6672   -4.2164   56.6216 H       1  ZINC000790205345    0.0800
     39 H39       -10.2421   -3.3402   58.1114 H       1  ZINC000790205345    0.0700
     40 H40       -12.8931   -5.9166   56.6628 H       1  ZINC000790205345    0.0600
     41 H41       -14.2332   -5.3958   57.7121 H       1  ZINC000790205345    0.0700
     42 H42       -14.4482   -5.4312   55.9455 H       1  ZINC000790205345    0.0800
     43 H43       -12.8876   -5.5803   54.6737 H       1  ZINC000790205345    0.1300
     44 H44       -11.7769   -5.2308   52.5053 H       1  ZINC000790205345    0.1300
     45 H45       -10.8327   -3.0285   51.9446 H       1  ZINC000790205345    0.1300
     46 H46       -12.4665    0.4934   53.2316 H       1  ZINC000790205345    0.1000
     47 H47       -11.6624    0.5529   54.8325 H       1  ZINC000790205345    0.1000
     48 H48       -10.9561    2.0329   52.4159 H       1  ZINC000790205345    0.1100
     49 H49       -10.1522    2.0924   54.0164 H       1  ZINC000790205345    0.1100
     50 H50       -12.1205   -1.5219   55.7337 H       1  ZINC000790205345    0.1600
     51 H51       -12.2511    0.5038   61.5808 H       1  ZINC000790205345    0.1300
     52 H52       -11.7806    1.1225   64.5926 H       1  ZINC000790205345    0.0700
     53 H53       -10.5276    2.3402   64.2526 H       1  ZINC000790205345    0.0700
     54 H54       -11.9876    2.2580   63.2376 H       1  ZINC000790205345    0.0700
@<TRIPOS>BOND
     1     1     2    1
     2     1    30    1
     3     1    31    1
     4     1    32    1
     5     2    28   ar
     6     2     3   ar
     7     3     4   ar
     8     3    33    1
     9     4     5   ar
    10     4    34    1
    11     5     6    1
    12     5    27   ar
    13     6     7    1
    14     7     8    1
    15     7    35    1
    16     7    36    1
    17     8     9    2
    18     8    10   am
    19    10    11    1
    20    10    12    1
    21    11    37    1
    22    11    38    1
    23    11    39    1
    24    12    13    1
    25    12    14    1
    26    12    15    1
    27    14    40    1
    28    14    41    1
    29    14    42    1
    30    15    26   ar
    31    15    16   ar
    32    16    17   ar
    33    16    43    1
    34    17    18   ar
    35    17    44    1
    36    18    19   ar
    37    18    45    1
    38    19    20    1
    39    19    26   ar
    40    20    24   am
    41    20    21    1
    42    21    22    1
    43    21    46    1
    44    21    47    1
    45    22    23    1
    46    22    48    1
    47    22    49    1
    48    23    24    1
    49    24    25    2
    50    26    50    1
    51    27    28   ar
    52    27    51    1
    53    28    29    1
    54    29    52    1
    55    29    53    1
    56    29    54    1
@<TRIPOS>SUBSTRUCTURE
     1 ZINC000790205345        1 TEMP              0 ****  ****    0 ROOT


##########                                Name:    ZINC001000186632
##########                DOCK_Rotatable_Bonds:                   7
##########                         Heavy_Atoms:                  23
##########                    Molecular_Weight:             342.379
##########                DOCK_Rotatable_Bonds:                   7
##########                       Formal_Charge:          -0.0100001
##########                     HBond_Acceptors:                  11
##########                        HBond_Donors:                   2
##########                         Heavy_Atoms:                  23
##########                          Grid_Score:          -34.484791
##########                     Grid_vdw_energy:          -33.595844
##########                      Grid_es_energy:           -0.888947
##########           Internal_energy_repulsive:            7.407628

@<TRIPOS>MOLECULE
ZINC001000186632
 41 43 1 0 0
SMALL
USER_CHARGES


@<TRIPOS>ATOM
      1 O1        -10.8603    0.2076   62.2932 O.2     1  ZINC001000186632   -0.5200
      2 C2        -11.6592   -0.6544   61.9938 C.2     1  ZINC001000186632    0.5300
      3 C3        -13.0991   -0.5281   62.4205 C.3     1  ZINC001000186632   -0.0500
      4 C4        -13.9519   -1.4525   61.5902 C.2     1  ZINC001000186632    0.2400
      5 N5        -13.9532   -2.7574   61.6659 N.2     1  ZINC001000186632   -0.3000
      6 N6        -14.8879   -3.2175   60.7240 N.pl3   1  ZINC001000186632   -0.4800
      7 C7        -15.3977   -2.1239   60.1313 C.2     1  ZINC001000186632    0.2700
      8 N8        -14.8311   -1.0720   60.6642 N.2     1  ZINC001000186632   -0.5400
      9 N9        -11.2607   -1.7224   61.2748 N.am    1  ZINC001000186632   -0.7100
     10 C10        -9.8610   -1.8451   60.8601 C.3     1  ZINC001000186632    0.1100
     11 C11        -9.5708   -3.1041   60.0229 C.3     1  ZINC001000186632    0.1000
     12 N12        -9.8705   -2.2674   58.8447 N.am    1  ZINC001000186632   -0.6500
     13 C13       -10.2954   -2.5194   57.5906 C.2     1  ZINC001000186632    0.5100
     14 O14       -10.4617   -1.6049   56.8114 O.2     1  ZINC001000186632   -0.5100
     15 C15       -10.5637   -3.9374   57.1567 C.3     1  ZINC001000186632    0.1500
     16 N16       -11.4640   -3.9323   56.0009 N.am    1  ZINC001000186632   -0.9800
     17 C17       -11.1325   -3.4813   54.6410 C.3     1  ZINC001000186632    0.0800
     18 C18       -11.9785   -4.2489   53.6073 C.3     1  ZINC001000186632   -0.1300
     19 C19       -13.4177   -4.2303   54.1987 C.3     1  ZINC001000186632   -0.6000
     20 S20       -13.0535   -4.4444   55.9835 S.o2    1  ZINC001000186632    2.5700
     21 O21       -13.0103   -5.8195   56.3391 O.2     1  ZINC001000186632   -0.9400
     22 O22       -13.7528   -3.4895   56.7700 O.2     1  ZINC001000186632   -0.9600
     23 C23        -9.5181   -1.0440   59.5910 C.3     1  ZINC001000186632    0.0900
     24 H24       -13.1911   -0.7963   63.4730 H       1  ZINC001000186632    0.1300
     25 H25       -13.4317    0.4999   62.2771 H       1  ZINC001000186632    0.1200
     26 H26       -15.1194   -4.1409   60.5379 H       1  ZINC001000186632    0.4400
     27 H27       -16.1469   -2.1151   59.3534 H       1  ZINC001000186632    0.2200
     28 H28       -11.9006   -2.4098   61.0321 H       1  ZINC001000186632    0.4100
     29 H29        -9.1596   -1.6899   61.6799 H       1  ZINC001000186632    0.1200
     30 H30        -8.5338   -3.4360   60.0737 H       1  ZINC001000186632    0.1000
     31 H31       -10.2854   -3.9116   60.1815 H       1  ZINC001000186632    0.0900
     32 H32        -9.6242   -4.4176   56.8832 H       1  ZINC001000186632    0.1100
     33 H33       -11.0275   -4.4865   57.9760 H       1  ZINC001000186632    0.1100
     34 H34       -11.3371   -2.4142   54.5543 H       1  ZINC001000186632    0.0800
     35 H35       -10.0750   -3.6620   54.4482 H       1  ZINC001000186632    0.0900
     36 H36       -11.9559   -3.7408   52.6434 H       1  ZINC001000186632    0.1100
     37 H37       -11.6208   -5.2737   53.5075 H       1  ZINC001000186632    0.1000
     38 H38       -13.9102   -3.2773   54.0056 H       1  ZINC001000186632    0.1400
     39 H39       -14.0105   -5.0620   53.8178 H       1  ZINC001000186632    0.1400
     40 H40       -10.1908   -0.2068   59.4048 H       1  ZINC001000186632    0.0900
     41 H41        -8.4656   -0.7707   59.5149 H       1  ZINC001000186632    0.1100
@<TRIPOS>BOND
     1     1     2    2
     2     2     3    1
     3     2     9   am
     4     3     4    1
     5     3    24    1
     6     3    25    1
     7     4     8    1
     8     4     5    2
     9     5     6    1
    10     6     7    1
    11     6    26    1
    12     7     8    2
    13     7    27    1
    14     9    10    1
    15     9    28    1
    16    10    23    1
    17    10    11    1
    18    10    29    1
    19    11    12    1
    20    11    30    1
    21    11    31    1
    22    12    13   am
    23    12    23    1
    24    13    14    2
    25    13    15    1
    26    15    16    1
    27    15    32    1
    28    15    33    1
    29    16    20   am
    30    16    17    1
    31    17    18    1
    32    17    34    1
    33    17    35    1
    34    18    19    1
    35    18    36    1
    36    18    37    1
    37    19    20    1
    38    19    38    1
    39    19    39    1
    40    20    21    2
    41    20    22    2
    42    23    40    1
    43    23    41    1
@<TRIPOS>SUBSTRUCTURE
     1 ZINC001000186632        1 TEMP              0 ****  ****    0 ROOT


##########                                Name:    ZINC000417533280
##########                DOCK_Rotatable_Bonds:                   9
##########                         Heavy_Atoms:                  26
##########                    Molecular_Weight:             367.439
##########                DOCK_Rotatable_Bonds:                   9
##########                       Formal_Charge:         -0.00999999
##########                     HBond_Acceptors:                   7
##########                        HBond_Donors:                   2
##########                         Heavy_Atoms:                  26
##########                          Grid_Score:          -34.459690
##########                     Grid_vdw_energy:          -34.597824
##########                      Grid_es_energy:            0.138134
##########           Internal_energy_repulsive:           16.165272

@<TRIPOS>MOLECULE
ZINC000417533280
 53 54 1 0 0
SMALL
USER_CHARGES


@<TRIPOS>ATOM
      1 C1        -11.7190   -2.7052   52.2508 C.3     1  ZINC000417533280   -0.1600
      2 C2        -12.8345   -2.8845   53.2826 C.3     1  ZINC000417533280   -0.1200
      3 C3        -12.3082   -3.6981   54.4666 C.3     1  ZINC000417533280   -0.1200
      4 C4        -13.4257   -3.8831   55.4952 C.3     1  ZINC000417533280   -0.1300
      5 C5        -12.8847   -4.6499   56.7036 C.3     1  ZINC000417533280    0.1200
      6 N6        -11.9984   -3.7780   57.4783 N.am    1  ZINC000417533280   -0.7300
      7 C7        -10.6678   -3.9922   57.4713 C.2     1  ZINC000417533280    0.5200
      8 O8        -10.2041   -4.9059   56.8225 O.2     1  ZINC000417533280   -0.5400
      9 C9         -9.7561   -3.0964   58.2698 C.3     1  ZINC000417533280   -0.1100
     10 C10       -10.1224   -1.6335   58.0089 C.3     1  ZINC000417533280   -0.1300
     11 C11        -9.1717   -0.7252   58.7950 C.3     1  ZINC000417533280    0.1300
     12 N12        -9.2100   -1.1135   60.2115 N.am    1  ZINC000417533280   -0.6200
     13 C13        -9.4686   -0.1991   61.1674 C.2     1  ZINC000417533280    0.7100
     14 O14        -9.6729    0.9596   60.8608 O.2     1  ZINC000417533280   -0.5600
     15 N15        -9.5006   -0.5693   62.4629 N.am    1  ZINC000417533280   -0.6800
     16 C16        -9.7693    0.3809   63.4562 C.ar    1  ZINC000417533280    0.1900
     17 C17        -8.7385    0.8691   64.2476 C.ar    1  ZINC000417533280   -0.1100
     18 C18        -9.0043    1.8069   65.2270 C.ar    1  ZINC000417533280   -0.1100
     19 C19       -10.2974    2.2601   65.4203 C.ar    1  ZINC000417533280    0.0500
     20 F20       -10.5549    3.1773   66.3783 F       1  ZINC000417533280   -0.1300
     21 C21       -11.3295    1.7741   64.6312 C.ar    1  ZINC000417533280    0.0900
     22 F22       -12.5913    2.2176   64.8211 F       1  ZINC000417533280   -0.1200
     23 C23       -11.0658    0.8396   63.6466 C.ar    1  ZINC000417533280   -0.1300
     24 C24       -12.1864    0.3114   62.7885 C.3     1  ZINC000417533280   -0.1200
     25 C25        -8.9616   -2.5175   60.5661 C.3     1  ZINC000417533280    0.1100
     26 C26        -9.9147   -3.4057   59.7601 C.3     1  ZINC000417533280   -0.1200
     27 H27       -10.8812   -2.1796   52.7092 H       1  ZINC000417533280    0.0500
     28 H28       -11.3871   -3.6827   51.9010 H       1  ZINC000417533280    0.0500
     29 H29       -12.0940   -2.1256   51.4074 H       1  ZINC000417533280    0.0500
     30 H30       -13.1664   -1.9069   53.6324 H       1  ZINC000417533280    0.0600
     31 H31       -13.6723   -3.4101   52.8242 H       1  ZINC000417533280    0.0600
     32 H32       -11.9719   -4.6738   54.1160 H       1  ZINC000417533280    0.0700
     33 H33       -11.4736   -3.1702   54.9279 H       1  ZINC000417533280    0.0700
     34 H34       -13.7885   -2.9070   55.8170 H       1  ZINC000417533280    0.0700
     35 H35       -14.2443   -4.4448   55.0451 H       1  ZINC000417533280    0.0700
     36 H36       -13.7157   -4.9729   57.3307 H       1  ZINC000417533280    0.0700
     37 H37       -12.3278   -5.5221   56.3608 H       1  ZINC000417533280    0.0700
     38 H38       -12.3691   -3.0465   57.9963 H       1  ZINC000417533280    0.4000
     39 H39        -8.7227   -3.2706   57.9707 H       1  ZINC000417533280    0.1000
     40 H40       -10.0318   -1.4202   56.9438 H       1  ZINC000417533280    0.0800
     41 H41       -11.1479   -1.4522   58.3307 H       1  ZINC000417533280    0.0800
     42 H42        -8.1575   -0.8392   58.4122 H       1  ZINC000417533280    0.0700
     43 H43        -9.4889    0.3125   58.6918 H       1  ZINC000417533280    0.1000
     44 H44        -9.3377   -1.4937   62.7073 H       1  ZINC000417533280    0.4100
     45 H45        -7.7290    0.5158   64.0978 H       1  ZINC000417533280    0.1700
     46 H46        -8.2021    2.1861   65.8426 H       1  ZINC000417533280    0.1500
     47 H47       -12.2960    0.9414   61.9058 H       1  ZINC000417533280    0.0800
     48 H48       -11.9583   -0.7090   62.4806 H       1  ZINC000417533280    0.0700
     49 H49       -13.1155    0.3198   63.3585 H       1  ZINC000417533280    0.0800
     50 H50        -7.9303   -2.7776   60.3278 H       1  ZINC000417533280    0.0800
     51 H51        -9.1403   -2.6623   61.6317 H       1  ZINC000417533280    0.0800
     52 H52       -10.9422   -3.2077   60.0656 H       1  ZINC000417533280    0.0800
     53 H53        -9.6762   -4.4536   59.9416 H       1  ZINC000417533280    0.0900
@<TRIPOS>BOND
     1     1     2    1
     2     1    27    1
     3     1    28    1
     4     1    29    1
     5     2     3    1
     6     2    30    1
     7     2    31    1
     8     3     4    1
     9     3    32    1
    10     3    33    1
    11     4     5    1
    12     4    34    1
    13     4    35    1
    14     5     6    1
    15     5    36    1
    16     5    37    1
    17     6     7   am
    18     6    38    1
    19     7     8    2
    20     7     9    1
    21     9    26    1
    22     9    10    1
    23     9    39    1
    24    10    11    1
    25    10    40    1
    26    10    41    1
    27    11    12    1
    28    11    42    1
    29    11    43    1
    30    12    13   am
    31    12    25    1
    32    13    14    2
    33    13    15   am
    34    15    16    1
    35    15    44    1
    36    16    23   ar
    37    16    17   ar
    38    17    18   ar
    39    17    45    1
    40    18    19   ar
    41    18    46    1
    42    19    20    1
    43    19    21   ar
    44    21    22    1
    45    21    23   ar
    46    23    24    1
    47    24    47    1
    48    24    48    1
    49    24    49    1
    50    25    26    1
    51    25    50    1
    52    25    51    1
    53    26    52    1
    54    26    53    1
@<TRIPOS>SUBSTRUCTURE
     1 ZINC000417533280        1 TEMP              0 ****  ****    0 ROOT


##########                                Name:    ZINC000489403631
##########                DOCK_Rotatable_Bonds:                   7
##########                         Heavy_Atoms:                  28
##########                    Molecular_Weight:             381.391
##########                DOCK_Rotatable_Bonds:                   7
##########                       Formal_Charge:          -0.0300003
##########                     HBond_Acceptors:                   9
##########                        HBond_Donors:                   1
##########                         Heavy_Atoms:                  28
##########                          Grid_Score:          -34.447212
##########                     Grid_vdw_energy:          -32.692520
##########                      Grid_es_energy:           -1.754692
##########           Internal_energy_repulsive:           13.439429

@<TRIPOS>MOLECULE
ZINC000489403631
 47 49 1 0 0
SMALL
USER_CHARGES


@<TRIPOS>ATOM
      1 C1        -10.9775    1.1778   59.7681 C.3     1  ZINC000489403631   -0.1100
      2 C2        -10.1818    0.2483   60.6476 C.ar    1  ZINC000489403631   -0.0800
      3 C3         -9.5670    0.7319   61.7851 C.ar    1  ZINC000489403631   -0.0900
      4 C4         -8.8337   -0.1249   62.5956 C.ar    1  ZINC000489403631    0.1200
      5 N5         -8.2100    0.3653   63.7502 N.am    1  ZINC000489403631   -0.6600
      6 C6         -8.9550    0.7938   64.7883 C.2     1  ZINC000489403631    0.5100
      7 O7        -10.1655    0.7551   64.7230 O.2     1  ZINC000489403631   -0.4600
      8 C8         -8.2839    1.3212   66.0304 C.3     1  ZINC000489403631    0.1700
      9 C9         -9.3081    2.0723   66.8836 C.3     1  ZINC000489403631   -0.1700
     10 C10        -7.7088    0.1534   66.8343 C.3     1  ZINC000489403631   -0.1700
     11 N11        -7.2017    2.2329   65.6512 N.pl3   1  ZINC000489403631   -0.3400
     12 C12        -5.9363    1.8787   65.3439 C.2     1  ZINC000489403631    0.1500
     13 C13        -5.2514    3.0083   65.0509 C.2     1  ZINC000489403631   -0.1900
     14 N14        -3.8263    3.0855   64.6584 N.pl3   1  ZINC000489403631    0.0700
     15 O15        -3.1614    2.0684   64.5755 O.2     1  ZINC000489403631   -0.1700
     16 O16        -3.3185    4.1664   64.4184 O.2     1  ZINC000489403631   -0.1600
     17 C17        -6.1282    4.0900   65.1838 C.2     1  ZINC000489403631    0.1000
     18 N18        -7.2991    3.6257   65.5377 N.2     1  ZINC000489403631   -0.2200
     19 C19        -8.7195   -1.4676   62.2613 C.ar    1  ZINC000489403631   -0.1100
     20 C20        -9.3350   -1.9503   61.1232 C.ar    1  ZINC000489403631   -0.1700
     21 C21       -10.0720   -1.0951   60.3171 C.ar    1  ZINC000489403631    0.1000
     22 O22       -10.6777   -1.5708   59.1967 O.3     1  ZINC000489403631   -0.2500
     23 C23       -11.9157   -2.1124   59.3229 C.ar    1  ZINC000489403631    0.1400
     24 C24       -12.5633   -2.6774   58.2266 C.ar    1  ZINC000489403631   -0.2000
     25 C25       -13.8213   -3.2178   58.3960 C.ar    1  ZINC000489403631    0.1200
     26 N26       -14.4101   -3.2037   59.5770 N.ar    1  ZINC000489403631   -0.4900
     27 C27       -13.8291   -2.6779   60.6389 C.ar    1  ZINC000489403631    0.1200
     28 C28       -12.5689   -2.1228   60.5531 C.ar    1  ZINC000489403631   -0.1800
     29 H29       -12.0141    1.1979   60.1046 H       1  ZINC000489403631    0.0700
     30 H30       -10.5571    2.1818   59.8264 H       1  ZINC000489403631    0.0700
     31 H31       -10.9369    0.8262   58.7372 H       1  ZINC000489403631    0.0700
     32 H32        -9.6559    1.7766   62.0444 H       1  ZINC000489403631    0.1500
     33 H33        -7.2419    0.3963   63.8024 H       1  ZINC000489403631    0.4100
     34 H34       -10.1134    1.3940   67.1658 H       1  ZINC000489403631    0.1000
     35 H35        -8.8228    2.4537   67.7820 H       1  ZINC000489403631    0.0900
     36 H36        -9.7178    2.9043   66.3109 H       1  ZINC000489403631    0.0800
     37 H37        -6.9792   -0.3818   66.2266 H       1  ZINC000489403631    0.0800
     38 H38        -7.2235    0.5348   67.7327 H       1  ZINC000489403631    0.0900
     39 H39        -8.5141   -0.5249   67.1165 H       1  ZINC000489403631    0.0900
     40 H40        -5.5410    0.8737   65.3339 H       1  ZINC000489403631    0.2000
     41 H41        -5.8824    5.1284   65.0181 H       1  ZINC000489403631    0.2100
     42 H42        -8.1491   -2.1343   62.8910 H       1  ZINC000489403631    0.1300
     43 H43        -9.2462   -2.9947   60.8630 H       1  ZINC000489403631    0.1300
     44 H44       -12.0873   -2.6919   57.2573 H       1  ZINC000489403631    0.1400
     45 H45       -14.3310   -3.6576   57.5514 H       1  ZINC000489403631    0.1600
     46 H46       -14.3449   -2.6859   61.5878 H       1  ZINC000489403631    0.1700
     47 H47       -12.0989   -1.6944   61.4260 H       1  ZINC000489403631    0.1500
@<TRIPOS>BOND
     1     1     2    1
     2     1    29    1
     3     1    30    1
     4     1    31    1
     5     2    21   ar
     6     2     3   ar
     7     3     4   ar
     8     3    32    1
     9     4     5    1
    10     4    19   ar
    11     5     6   am
    12     5    33    1
    13     6     7    2
    14     6     8    1
    15     8     9    1
    16     8    10    1
    17     8    11    1
    18     9    34    1
    19     9    35    1
    20     9    36    1
    21    10    37    1
    22    10    38    1
    23    10    39    1
    24    11    18    1
    25    11    12    1
    26    12    13    2
    27    12    40    1
    28    13    14    1
    29    13    17    1
    30    14    15    2
    31    14    16    2
    32    17    18    2
    33    17    41    1
    34    19    20   ar
    35    19    42    1
    36    20    21   ar
    37    20    43    1
    38    21    22    1
    39    22    23    1
    40    23    28   ar
    41    23    24   ar
    42    24    25   ar
    43    24    44    1
    44    25    26   ar
    45    25    45    1
    46    26    27   ar
    47    27    28   ar
    48    27    46    1
    49    28    47    1
@<TRIPOS>SUBSTRUCTURE
     1 ZINC000489403631        1 TEMP              0 ****  ****    0 ROOT


##########                                Name:    ZINC000805177769
##########                DOCK_Rotatable_Bonds:                  10
##########                         Heavy_Atoms:                  30
##########                    Molecular_Weight:             417.548
##########                DOCK_Rotatable_Bonds:                  10
##########                       Formal_Charge:           0.0199995
##########                     HBond_Acceptors:                   7
##########                        HBond_Donors:                   1
##########                         Heavy_Atoms:                  30
##########                          Grid_Score:          -34.439171
##########                     Grid_vdw_energy:          -32.940254
##########                      Grid_es_energy:           -1.498915
##########           Internal_energy_repulsive:           57.232281

@<TRIPOS>MOLECULE
ZINC000805177769
 65 66 1 0 0
SMALL
USER_CHARGES


@<TRIPOS>ATOM
      1 C1         -8.9562   -3.9179   58.9369 C.3     1  ZINC000805177769   -0.1200
      2 C2         -9.1969   -2.5639   59.5534 C.ar    1  ZINC000805177769   -0.0800
      3 C3         -9.3029   -2.4385   60.9257 C.ar    1  ZINC000805177769   -0.1200
      4 C4         -9.5237   -1.1963   61.4913 C.ar    1  ZINC000805177769   -0.1100
      5 C5         -9.6382   -0.0800   60.6845 C.ar    1  ZINC000805177769   -0.0900
      6 C6         -9.8794    1.2737   61.3009 C.3     1  ZINC000805177769   -0.0900
      7 C7        -11.3847    1.5323   61.3907 C.3     1  ZINC000805177769    0.1500
      8 H8        -11.7023    2.1302   60.5364 H       1  ZINC000805177769    0.1000
      9 C9        -11.6963    2.2864   62.6850 C.3     1  ZINC000805177769   -0.1700
     10 N10       -12.1009    0.2544   61.3856 N.am    1  ZINC000805177769   -0.6900
     11 C11       -13.2763    0.1432   60.7356 C.2     1  ZINC000805177769    0.5100
     12 O12       -13.7421    1.1020   60.1559 O.2     1  ZINC000805177769   -0.5100
     13 C13       -14.0060   -1.1610   60.7289 C.2     1  ZINC000805177769    0.5200
     14 O14       -14.2650   -1.7168   61.7760 O.2     1  ZINC000805177769   -0.5200
     15 N15       -14.3764   -1.7199   59.5596 N.am    1  ZINC000805177769   -0.5900
     16 C16       -15.0959   -2.9931   59.4084 C.3     1  ZINC000805177769    0.1100
     17 C17       -15.3257   -3.2129   57.8983 C.3     1  ZINC000805177769   -0.1500
     18 C18       -15.2230   -1.7773   57.3186 C.3     1  ZINC000805177769    0.1500
     19 H19       -16.1674   -1.2439   57.4264 H       1  ZINC000805177769    0.1200
     20 N20       -14.7963   -1.8062   55.9174 N.am    1  ZINC000805177769   -0.5900
     21 C21       -15.6282   -1.1825   54.8853 C.3     1  ZINC000805177769    0.0800
     22 C22       -13.6386   -2.4068   55.5778 C.2     1  ZINC000805177769    0.6600
     23 O23       -12.9478   -2.9228   56.4340 O.2     1  ZINC000805177769   -0.5600
     24 O24       -13.2472   -2.4348   54.2898 O.3     1  ZINC000805177769   -0.3600
     25 C25       -11.8189   -2.4973   54.0361 C.3     1  ZINC000805177769    0.1400
     26 C26       -11.1021   -1.4532   54.8948 C.3     1  ZINC000805177769   -0.1800
     27 C27       -11.2988   -3.8921   54.3894 C.3     1  ZINC000805177769   -0.1400
     28 C28       -11.5507   -2.2124   52.5570 C.3     1  ZINC000805177769   -0.1800
     29 C29       -14.1328   -1.1526   58.2209 C.3     1  ZINC000805177769    0.0900
     30 C30        -9.5308   -0.2053   59.3118 C.ar    1  ZINC000805177769   -0.0800
     31 C31        -9.6552    1.0119   58.4320 C.3     1  ZINC000805177769   -0.1200
     32 C32        -9.3062   -1.4465   58.7466 C.ar    1  ZINC000805177769   -0.1200
     33 H33        -7.8837   -4.0953   58.8571 H       1  ZINC000805177769    0.0700
     34 H34        -9.4062   -4.6877   59.5637 H       1  ZINC000805177769    0.0700
     35 H35        -9.4046   -3.9498   57.9439 H       1  ZINC000805177769    0.0700
     36 H36        -9.2134   -3.3108   61.5562 H       1  ZINC000805177769    0.1200
     37 H37        -9.6072   -1.0985   62.5637 H       1  ZINC000805177769    0.1200
     38 H38        -9.4460    1.3002   62.3007 H       1  ZINC000805177769    0.0800
     39 H39        -9.4149    2.0423   60.6831 H       1  ZINC000805177769    0.0900
     40 H40       -11.3787    1.6885   63.5393 H       1  ZINC000805177769    0.0600
     41 H41       -11.1635    3.2373   62.6887 H       1  ZINC000805177769    0.0700
     42 H42       -12.7688    2.4707   62.7490 H       1  ZINC000805177769    0.0600
     43 H43       -11.7292   -0.5118   61.8500 H       1  ZINC000805177769    0.4100
     44 H44       -14.4967   -3.8081   59.8146 H       1  ZINC000805177769    0.0900
     45 H45       -16.0539   -2.9412   59.9255 H       1  ZINC000805177769    0.0900
     46 H46       -14.5504   -3.8543   57.4795 H       1  ZINC000805177769    0.0900
     47 H47       -16.3150   -3.6325   57.7159 H       1  ZINC000805177769    0.0900
     48 H48       -15.3347   -0.1399   54.7632 H       1  ZINC000805177769    0.0600
     49 H49       -15.4933   -1.7108   53.9416 H       1  ZINC000805177769    0.0800
     50 H50       -16.6755   -1.2326   55.1834 H       1  ZINC000805177769    0.0800
     51 H51       -11.2933   -1.6561   55.9485 H       1  ZINC000805177769    0.0600
     52 H52       -10.0300   -1.5002   54.7043 H       1  ZINC000805177769    0.0700
     53 H53       -11.4727   -0.4595   54.6431 H       1  ZINC000805177769    0.0900
     54 H54       -11.8094   -4.6359   53.7777 H       1  ZINC000805177769    0.0700
     55 H55       -10.2266   -3.9391   54.1990 H       1  ZINC000805177769    0.0800
     56 H56       -11.4899   -4.0951   55.4432 H       1  ZINC000805177769    0.0700
     57 H57       -11.9211   -1.2188   52.3054 H       1  ZINC000805177769    0.0900
     58 H58       -10.4785   -2.2595   52.3666 H       1  ZINC000805177769    0.0700
     59 H59       -12.0613   -2.9563   51.9454 H       1  ZINC000805177769    0.0600
     60 H60       -14.2329   -0.0675   58.2410 H       1  ZINC000805177769    0.0900
     61 H61       -13.1408   -1.4364   57.8693 H       1  ZINC000805177769    0.0800
     62 H62        -8.6707    1.4563   58.2855 H       1  ZINC000805177769    0.0700
     63 H63       -10.0702    0.7217   57.4668 H       1  ZINC000805177769    0.0700
     64 H64       -10.3144    1.7381   58.9075 H       1  ZINC000805177769    0.0700
     65 H65        -9.2224   -1.5444   57.6743 H       1  ZINC000805177769    0.1200
@<TRIPOS>BOND
     1     1     2    1
     2     1    33    1
     3     1    34    1
     4     1    35    1
     5     2    32   ar
     6     2     3   ar
     7     3     4   ar
     8     3    36    1
     9     4     5   ar
    10     4    37    1
    11     5     6    1
    12     5    30   ar
    13     6     7    1
    14     6    38    1
    15     6    39    1
    16     7     8    1
    17     7     9    1
    18     7    10    1
    19     9    40    1
    20     9    41    1
    21     9    42    1
    22    10    11   am
    23    10    43    1
    24    11    12    2
    25    11    13    1
    26    13    14    2
    27    13    15   am
    28    15    29    1
    29    15    16    1
    30    16    17    1
    31    16    44    1
    32    16    45    1
    33    17    18    1
    34    17    46    1
    35    17    47    1
    36    18    19    1
    37    18    20    1
    38    18    29    1
    39    20    21    1
    40    20    22   am
    41    21    48    1
    42    21    49    1
    43    21    50    1
    44    22    23    2
    45    22    24    1
    46    24    25    1
    47    25    26    1
    48    25    27    1
    49    25    28    1
    50    26    51    1
    51    26    52    1
    52    26    53    1
    53    27    54    1
    54    27    55    1
    55    27    56    1
    56    28    57    1
    57    28    58    1
    58    28    59    1
    59    29    60    1
    60    29    61    1
    61    30    31    1
    62    30    32   ar
    63    31    62    1
    64    31    63    1
    65    31    64    1
    66    32    65    1
@<TRIPOS>SUBSTRUCTURE
     1 ZINC000805177769        1 TEMP              0 ****  ****    0 ROOT


##########                                Name:    ZINC000499369364
##########                DOCK_Rotatable_Bonds:                   9
##########                         Heavy_Atoms:                  25
##########                    Molecular_Weight:             384.527
##########                DOCK_Rotatable_Bonds:                   9
##########                       Formal_Charge:        -5.88596e-07
##########                     HBond_Acceptors:                  10
##########                        HBond_Donors:                   1
##########                         Heavy_Atoms:                  25
##########                          Grid_Score:          -34.433945
##########                     Grid_vdw_energy:          -34.385941
##########                      Grid_es_energy:           -0.048005
##########           Internal_energy_repulsive:           17.473444

@<TRIPOS>MOLECULE
ZINC000499369364
 49 51 1 0 0
SMALL
USER_CHARGES


@<TRIPOS>ATOM
      1 C1        -15.9292   -0.3100   51.5764 C.3     1  ZINC000499369364   -0.1500
      2 C2        -16.8046   -1.4790   52.0327 C.3     1  ZINC000499369364   -0.1000
      3 C3        -16.7356   -2.6026   50.9966 C.3     1  ZINC000499369364   -0.1500
      4 C4        -16.3008   -1.9971   53.3813 C.3     1  ZINC000499369364    0.1500
      5 H5        -15.9279   -1.1625   53.9750 H       1  ZINC000499369364    0.0900
      6 C6        -17.4493   -2.6801   54.1265 C.3     1  ZINC000499369364   -0.1700
      7 N7        -15.2199   -2.9612   53.1610 N.am    1  ZINC000499369364   -0.7200
      8 C8        -13.9774   -2.6949   53.6105 C.2     1  ZINC000499369364    0.5100
      9 O9        -13.7546   -1.6579   54.1986 O.2     1  ZINC000499369364   -0.5100
     10 C10       -12.8651   -3.6857   53.3823 C.3     1  ZINC000499369364    0.1200
     11 H11       -13.3005   -4.6320   53.0612 H       1  ZINC000499369364    0.1200
     12 C12       -11.9484   -3.1533   52.2575 C.3     1  ZINC000499369364   -0.0800
     13 S13       -10.5882   -2.3842   53.2330 S.3     1  ZINC000499369364   -0.2400
     14 C14       -10.7191   -3.5986   54.6101 C.3     1  ZINC000499369364    0.1400
     15 N15       -12.1616   -3.8967   54.6383 N.am    1  ZINC000499369364   -0.6000
     16 C16       -12.7871   -4.3368   55.7480 C.2     1  ZINC000499369364    0.5600
     17 O17       -13.9771   -4.5697   55.7214 O.2     1  ZINC000499369364   -0.5000
     18 C18       -12.0080   -4.5394   57.0220 C.3     1  ZINC000499369364   -0.1500
     19 S19       -11.8663   -2.9629   57.8998 S.3     1  ZINC000499369364    0.1300
     20 C20       -10.4539   -3.2952   58.8995 C.2     1  ZINC000499369364    0.2000
     21 N21        -9.4532   -4.0940   58.5977 N.2     1  ZINC000499369364   -0.3400
     22 N22        -8.5883   -4.1095   59.5468 N.2     1  ZINC000499369364   -0.0300
     23 N23        -8.9637   -3.3369   60.5079 N.2     1  ZINC000499369364   -0.0800
     24 N24       -10.1913   -2.7719   60.1203 N.pl3   1  ZINC000499369364   -0.3300
     25 C25       -11.0144   -1.8267   60.8787 C.3     1  ZINC000499369364    0.0500
     26 C26       -10.2894   -0.8067   61.7591 C.3     1  ZINC000499369364   -0.1500
     27 C27       -10.9653   -0.3552   60.4627 C.3     1  ZINC000499369364   -0.1600
     28 H28       -16.2880    0.0591   50.6156 H       1  ZINC000499369364    0.0600
     29 H29       -15.9783    0.4904   52.3145 H       1  ZINC000499369364    0.0600
     30 H30       -14.8976   -0.6469   51.4739 H       1  ZINC000499369364    0.0600
     31 H31       -17.8361   -1.1421   52.1352 H       1  ZINC000499369364    0.0800
     32 H32       -17.0944   -2.2335   50.0358 H       1  ZINC000499369364    0.0600
     33 H33       -15.7041   -2.9396   50.8941 H       1  ZINC000499369364    0.0600
     34 H34       -17.3591   -3.4355   51.3218 H       1  ZINC000499369364    0.0500
     35 H35       -17.8222   -3.5147   53.5329 H       1  ZINC000499369364    0.0600
     36 H36       -17.0904   -3.0493   55.0873 H       1  ZINC000499369364    0.0600
     37 H37       -18.2536   -1.9629   54.2904 H       1  ZINC000499369364    0.0700
     38 H38       -15.3983   -3.7912   52.6917 H       1  ZINC000499369364    0.4000
     39 H39       -11.5738   -3.9688   51.6387 H       1  ZINC000499369364    0.1200
     40 H40       -12.4646   -2.4091   51.6511 H       1  ZINC000499369364    0.1300
     41 H41       -10.1416   -4.4963   54.3901 H       1  ZINC000499369364    0.1100
     42 H42       -10.3983   -3.1520   55.5513 H       1  ZINC000499369364    0.1200
     43 H43       -12.5254   -5.2616   57.6534 H       1  ZINC000499369364    0.1300
     44 H44       -11.0122   -4.9131   56.7833 H       1  ZINC000499369364    0.1300
     45 H45       -11.9665   -2.2164   61.2390 H       1  ZINC000499369364    0.1600
     46 H46       -10.7644   -0.5252   62.6988 H       1  ZINC000499369364    0.1200
     47 H47        -9.2001   -0.8389   61.7738 H       1  ZINC000499369364    0.1200
     48 H48       -10.3204   -0.0903   59.6248 H       1  ZINC000499369364    0.1100
     49 H49       -11.8849    0.2234   60.5497 H       1  ZINC000499369364    0.1200
@<TRIPOS>BOND
     1     1     2    1
     2     1    28    1
     3     1    29    1
     4     1    30    1
     5     2     3    1
     6     2     4    1
     7     2    31    1
     8     3    32    1
     9     3    33    1
    10     3    34    1
    11     4     5    1
    12     4     6    1
    13     4     7    1
    14     6    35    1
    15     6    36    1
    16     6    37    1
    17     7     8   am
    18     7    38    1
    19     8     9    2
    20     8    10    1
    21    10    11    1
    22    10    15    1
    23    10    12    1
    24    12    13    1
    25    12    39    1
    26    12    40    1
    27    13    14    1
    28    14    15    1
    29    14    41    1
    30    14    42    1
    31    15    16   am
    32    16    17    2
    33    16    18    1
    34    18    19    1
    35    18    43    1
    36    18    44    1
    37    19    20    1
    38    20    24    1
    39    20    21    2
    40    21    22    1
    41    22    23    2
    42    23    24    1
    43    24    25    1
    44    25    27    1
    45    25    26    1
    46    25    45    1
    47    26    27    1
    48    26    46    1
    49    26    47    1
    50    27    48    1
    51    27    49    1
@<TRIPOS>SUBSTRUCTURE
     1 ZINC000499369364        1 TEMP              0 ****  ****    0 ROOT


##########                                Name:    ZINC000671418508
##########                DOCK_Rotatable_Bonds:                   9
##########                         Heavy_Atoms:                  28
##########                    Molecular_Weight:             405.884
##########                DOCK_Rotatable_Bonds:                   9
##########                       Formal_Charge:         -1.3411e-07
##########                     HBond_Acceptors:                   9
##########                        HBond_Donors:                   2
##########                         Heavy_Atoms:                  28
##########                          Grid_Score:          -34.424984
##########                     Grid_vdw_energy:          -34.832928
##########                      Grid_es_energy:            0.407945
##########           Internal_energy_repulsive:           16.854284

@<TRIPOS>MOLECULE
ZINC000671418508
 52 54 1 0 0
SMALL
USER_CHARGES


@<TRIPOS>ATOM
      1 C1        -10.6024   -2.2946   52.7261 C.3     1  ZINC000671418508    0.1000
      2 N2        -11.6658   -3.1047   53.3253 N.pl3   1  ZINC000671418508   -0.3700
      3 C3        -12.6920   -2.6426   54.0700 C.2     1  ZINC000671418508    0.0800
      4 C4        -13.4495   -3.7038   54.4320 C.2     1  ZINC000671418508   -0.2700
      5 C5        -14.7009   -3.6550   55.2704 C.3     1  ZINC000671418508    0.2000
      6 N6        -14.3398   -3.6963   56.6896 N.am    1  ZINC000671418508   -0.6900
      7 C7        -14.9882   -2.9117   57.5730 C.2     1  ZINC000671418508    0.5100
      8 O8        -15.8702   -2.1701   57.1927 O.2     1  ZINC000671418508   -0.5100
      9 C9        -14.6210   -2.9551   59.0210 C.2     1  ZINC000671418508    0.5100
     10 O10       -15.3430   -3.5239   59.8133 O.2     1  ZINC000671418508   -0.5200
     11 N11       -13.4879   -2.3624   59.4470 N.am    1  ZINC000671418508   -0.5800
     12 C12       -12.6018   -1.6625   58.5045 C.3     1  ZINC000671418508    0.0800
     13 C13       -12.3146   -0.2617   59.0554 C.3     1  ZINC000671418508    0.0400
     14 N14       -11.7986   -0.3743   60.4261 N.3     1  ZINC000671418508   -0.5200
     15 C15       -11.3496    0.9310   60.9285 C.3     1  ZINC000671418508    0.1300
     16 H16       -12.2152    1.5686   61.1080 H       1  ZINC000671418508    0.0600
     17 C17       -10.4371    1.5899   59.8921 C.3     1  ZINC000671418508    0.0900
     18 O18        -9.7370    2.6787   60.4975 O.3     1  ZINC000671418508   -0.5500
     19 C19       -10.5908    0.7396   62.2164 C.ar    1  ZINC000671418508   -0.0800
     20 C20        -9.5154   -0.1278   62.2624 C.ar    1  ZINC000671418508   -0.0600
     21 C21        -8.8191   -0.3038   63.4433 C.ar    1  ZINC000671418508   -0.1200
     22 C22        -9.1986    0.3885   64.5796 C.ar    1  ZINC000671418508   -0.0300
     23 Cl23       -8.3243    0.1684   66.0630 Cl      1  ZINC000671418508   -0.0700
     24 C24       -10.2750    1.2565   64.5329 C.ar    1  ZINC000671418508   -0.1200
     25 C25       -10.9670    1.4358   63.3500 C.ar    1  ZINC000671418508   -0.1100
     26 C26       -12.7976   -0.9688   61.3243 C.3     1  ZINC000671418508    0.0400
     27 C27       -13.1077   -2.3933   60.8674 C.3     1  ZINC000671418508    0.1100
     28 C28       -12.8664   -4.8537   53.8901 C.2     1  ZINC000671418508    0.0700
     29 N29       -11.8004   -4.4952   53.2214 N.2     1  ZINC000671418508   -0.2900
     30 H30       -10.9065   -1.9756   51.7292 H       1  ZINC000671418508    0.0800
     31 H31       -10.4192   -1.4182   53.3479 H       1  ZINC000671418508    0.0900
     32 H32        -9.6902   -2.8871   52.6555 H       1  ZINC000671418508    0.0900
     33 H33       -12.8755   -1.6107   54.3307 H       1  ZINC000671418508    0.1800
     34 H34       -15.2433   -2.7332   55.0601 H       1  ZINC000671418508    0.0800
     35 H35       -15.3321   -4.5108   55.0311 H       1  ZINC000671418508    0.0800
     36 H36       -13.6339   -4.2882   56.9935 H       1  ZINC000671418508    0.4100
     37 H37       -11.6674   -2.2143   58.4019 H       1  ZINC000671418508    0.0800
     38 H38       -13.0909   -1.5811   57.5338 H       1  ZINC000671418508    0.1400
     39 H39       -11.5729    0.2312   58.4269 H       1  ZINC000671418508    0.0900
     40 H40       -13.2344    0.3231   59.0598 H       1  ZINC000671418508    0.0400
     41 H41        -9.7196    0.8576   59.5218 H       1  ZINC000671418508    0.0500
     42 H42       -11.0384    1.9612   59.0622 H       1  ZINC000671418508    0.0500
     43 H43       -10.2145    3.5190   60.4665 H       1  ZINC000671418508    0.3800
     44 H44        -9.2194   -0.6684   61.3755 H       1  ZINC000671418508    0.1400
     45 H45        -7.9792   -0.9817   63.4792 H       1  ZINC000671418508    0.1300
     46 H46       -10.5719    1.7968   65.4196 H       1  ZINC000671418508    0.1300
     47 H47       -11.8070    2.1137   63.3133 H       1  ZINC000671418508    0.1300
     48 H48       -12.4061   -0.9886   62.3414 H       1  ZINC000671418508    0.0900
     49 H49       -13.7107   -0.3742   61.2971 H       1  ZINC000671418508    0.0400
     50 H50       -13.9292   -2.7970   61.4593 H       1  ZINC000671418508    0.1000
     51 H51       -12.2229   -3.0180   60.9900 H       1  ZINC000671418508    0.0800
     52 H52       -13.2350   -5.8628   54.0003 H       1  ZINC000671418508    0.1900
@<TRIPOS>BOND
     1     1     2    1
     2     1    30    1
     3     1    31    1
     4     1    32    1
     5     2    29    1
     6     2     3    1
     7     3     4    2
     8     3    33    1
     9     4     5    1
    10     4    28    1
    11     5     6    1
    12     5    34    1
    13     5    35    1
    14     6     7   am
    15     6    36    1
    16     7     8    2
    17     7     9    1
    18     9    10    2
    19     9    11   am
    20    11    27    1
    21    11    12    1
    22    12    13    1
    23    12    37    1
    24    12    38    1
    25    13    14    1
    26    13    39    1
    27    13    40    1
    28    14    15    1
    29    14    26    1
    30    15    16    1
    31    15    17    1
    32    15    19    1
    33    17    18    1
    34    17    41    1
    35    17    42    1
    36    18    43    1
    37    19    25   ar
    38    19    20   ar
    39    20    21   ar
    40    20    44    1
    41    21    22   ar
    42    21    45    1
    43    22    23    1
    44    22    24   ar
    45    24    25   ar
    46    24    46    1
    47    25    47    1
    48    26    27    1
    49    26    48    1
    50    26    49    1
    51    27    50    1
    52    27    51    1
    53    28    29    2
    54    28    52    1
@<TRIPOS>SUBSTRUCTURE
     1 ZINC000671418508        1 TEMP              0 ****  ****    0 ROOT


##########                                Name:    ZINC001340305486
##########                DOCK_Rotatable_Bonds:                   8
##########                         Heavy_Atoms:                  27
##########                    Molecular_Weight:             378.431
##########                DOCK_Rotatable_Bonds:                   8
##########                       Formal_Charge:          0.00999955
##########                     HBond_Acceptors:                  10
##########                        HBond_Donors:                   2
##########                         Heavy_Atoms:                  27
##########                          Grid_Score:          -34.417736
##########                     Grid_vdw_energy:          -34.168259
##########                      Grid_es_energy:           -0.249479
##########           Internal_energy_repulsive:            9.117225

@<TRIPOS>MOLECULE
ZINC001340305486
 53 55 1 0 0
SMALL
USER_CHARGES


@<TRIPOS>ATOM
      1 C1         -7.6104    2.0821   56.0527 C.3     1  ZINC001340305486    0.0900
      2 N2         -8.9656    1.8839   55.5331 N.am    1  ZINC001340305486   -0.7300
      3 C3         -9.1473    1.3226   54.3213 C.2     1  ZINC001340305486    0.5200
      4 O4         -8.1887    0.9829   53.6604 O.2     1  ZINC001340305486   -0.5100
      5 C5        -10.5415    1.1170   53.7874 C.3     1  ZINC001340305486    0.0600
      6 H6        -11.2360    0.9985   54.6191 H       1  ZINC001340305486    0.0900
      7 C7        -10.5738   -0.1398   52.9104 C.3     1  ZINC001340305486    0.0900
      8 N8        -11.8887   -0.2140   52.2539 N.am    1  ZINC001340305486   -0.5800
      9 C9        -12.6233   -1.3431   52.2978 C.2     1  ZINC001340305486    0.5100
     10 O10       -13.7052   -1.3848   51.7495 O.2     1  ZINC001340305486   -0.5200
     11 C11       -12.1055   -2.5440   53.0213 C.2     1  ZINC001340305486    0.5200
     12 O12       -11.2455   -3.2338   52.5142 O.2     1  ZINC001340305486   -0.5000
     13 N13       -12.5937   -2.8607   54.2369 N.am    1  ZINC001340305486   -0.6900
     14 C14       -12.0873   -4.0389   54.9453 C.3     1  ZINC001340305486    0.1200
     15 C15       -12.6444   -4.0556   56.3702 C.3     1  ZINC001340305486   -0.0400
     16 C16       -11.5144   -4.2453   57.3491 C.2     1  ZINC001340305486    0.1700
     17 N17       -10.9159   -5.3713   57.6349 N.2     1  ZINC001340305486   -0.2800
     18 N18        -9.9928   -5.1628   58.5078 N.2     1  ZINC001340305486   -0.2900
     19 C19        -9.9592   -3.8968   58.8124 C.2     1  ZINC001340305486    0.1900
     20 C20        -9.0162   -3.2154   59.7698 C.3     1  ZINC001340305486   -0.0400
     21 C21        -9.8176   -2.2844   60.6845 C.3     1  ZINC001340305486   -0.1200
     22 C22        -9.9460   -0.9118   60.0308 C.3     1  ZINC001340305486   -0.1300
     23 C23       -10.0309   -1.0485   58.5113 C.3     1  ZINC001340305486   -0.1400
     24 C24       -11.2729   -1.8608   58.1340 C.3     1  ZINC001340305486    0.1000
     25 N25       -10.9259   -3.2818   58.0919 N.pl3   1  ZINC001340305486   -0.4600
     26 C26       -12.3775    0.9808   51.5477 C.3     1  ZINC001340305486    0.0200
     27 C27       -12.2574    2.1830   52.4911 C.3     1  ZINC001340305486    0.0500
     28 O28       -10.9243    2.2493   53.0032 O.3     1  ZINC001340305486   -0.3500
     29 H29        -7.1066    1.1187   56.1307 H       1  ZINC001340305486    0.0600
     30 H30        -7.0529    2.7299   55.3762 H       1  ZINC001340305486    0.0600
     31 H31        -7.6632    2.5452   57.0381 H       1  ZINC001340305486    0.0800
     32 H32        -9.7323    2.1566   56.0610 H       1  ZINC001340305486    0.4000
     33 H33        -9.7894   -0.0811   52.1557 H       1  ZINC001340305486    0.0900
     34 H34       -10.4223   -1.0238   53.5299 H       1  ZINC001340305486    0.1100
     35 H35       -13.2803   -2.3087   54.6427 H       1  ZINC001340305486    0.4200
     36 H36       -12.4026   -4.9413   54.4213 H       1  ZINC001340305486    0.0900
     37 H37       -10.9986   -4.0012   54.9813 H       1  ZINC001340305486    0.0800
     38 H38       -13.1476   -3.1106   56.5747 H       1  ZINC001340305486    0.0900
     39 H39       -13.3554   -4.8755   56.4728 H       1  ZINC001340305486    0.1100
     40 H40        -8.5034   -3.9654   60.3721 H       1  ZINC001340305486    0.1000
     41 H41        -8.2843   -2.6341   59.2088 H       1  ZINC001340305486    0.0900
     42 H42       -10.8106   -2.7028   60.8483 H       1  ZINC001340305486    0.0600
     43 H43        -9.3039   -2.1844   61.6407 H       1  ZINC001340305486    0.0800
     44 H44       -10.8470   -0.4209   60.3988 H       1  ZINC001340305486    0.0700
     45 H45        -9.0765   -0.3073   60.2895 H       1  ZINC001340305486    0.0800
     46 H46       -10.0953   -0.0577   58.0612 H       1  ZINC001340305486    0.0900
     47 H47        -9.1397   -1.5561   58.1425 H       1  ZINC001340305486    0.0800
     48 H48       -12.0546   -1.6955   58.8753 H       1  ZINC001340305486    0.0900
     49 H49       -11.6290   -1.5462   57.1530 H       1  ZINC001340305486    0.1000
     50 H50       -11.7748    1.1523   50.6558 H       1  ZINC001340305486    0.0800
     51 H51       -13.4206    0.8388   51.2648 H       1  ZINC001340305486    0.1700
     52 H52       -12.4835    3.0987   51.9447 H       1  ZINC001340305486    0.1200
     53 H53       -12.9589    2.0687   53.3176 H       1  ZINC001340305486    0.0600
@<TRIPOS>BOND
     1     1     2    1
     2     1    29    1
     3     1    30    1
     4     1    31    1
     5     2     3   am
     6     2    32    1
     7     3     4    2
     8     3     5    1
     9     5     6    1
    10     5    28    1
    11     5     7    1
    12     7     8    1
    13     7    33    1
    14     7    34    1
    15     8     9   am
    16     8    26    1
    17     9    10    2
    18     9    11    1
    19    11    12    2
    20    11    13   am
    21    13    14    1
    22    13    35    1
    23    14    15    1
    24    14    36    1
    25    14    37    1
    26    15    16    1
    27    15    38    1
    28    15    39    1
    29    16    25    1
    30    16    17    2
    31    17    18    1
    32    18    19    2
    33    19    25    1
    34    19    20    1
    35    20    21    1
    36    20    40    1
    37    20    41    1
    38    21    22    1
    39    21    42    1
    40    21    43    1
    41    22    23    1
    42    22    44    1
    43    22    45    1
    44    23    24    1
    45    23    46    1
    46    23    47    1
    47    24    25    1
    48    24    48    1
    49    24    49    1
    50    26    27    1
    51    26    50    1
    52    26    51    1
    53    27    28    1
    54    27    52    1
    55    27    53    1
@<TRIPOS>SUBSTRUCTURE
     1 ZINC001340305486        1 TEMP              0 ****  ****    0 ROOT


##########                                Name:    ZINC000906038034
##########                DOCK_Rotatable_Bonds:                   5
##########                         Heavy_Atoms:                  23
##########                    Molecular_Weight:             387.428
##########                DOCK_Rotatable_Bonds:                   5
##########                       Formal_Charge:         -0.00999987
##########                     HBond_Acceptors:                  12
##########                        HBond_Donors:                   0
##########                         Heavy_Atoms:                  23
##########                          Grid_Score:          -34.365826
##########                     Grid_vdw_energy:          -32.950485
##########                      Grid_es_energy:           -1.415342
##########           Internal_energy_repulsive:            4.413124

@<TRIPOS>MOLECULE
ZINC000906038034
 35 36 1 0 0
SMALL
USER_CHARGES


@<TRIPOS>ATOM
      1 C1         -6.9856   -0.5347   51.1836 C.3     1  ZINC000906038034    0.1000
      2 N2         -8.1309   -0.6585   52.0888 N.pl3   1  ZINC000906038034   -0.3700
      3 C3         -8.4919    0.2338   53.0363 C.2     1  ZINC000906038034    0.0600
      4 C4         -9.5943   -0.2385   53.6567 C.2     1  ZINC000906038034   -0.2500
      5 C5         -9.9264   -1.4751   53.0656 C.2     1  ZINC000906038034    0.1200
      6 C6        -11.0661   -2.3403   53.4390 C.2     1  ZINC000906038034    0.1500
      7 N7        -11.9240   -2.0928   54.3869 N.2     1  ZINC000906038034   -0.4300
      8 C8        -12.8756   -2.9784   54.5770 C.2     1  ZINC000906038034    0.0600
      9 C9        -13.9281   -2.8061   55.6417 C.3     1  ZINC000906038034   -0.5300
     10 S10       -13.6955   -4.0610   56.9307 S.o2    1  ZINC000906038034    2.4200
     11 O11       -13.8874   -5.3448   56.3527 O.2     1  ZINC000906038034   -0.9100
     12 O12       -12.4834   -3.7840   57.6186 O.2     1  ZINC000906038034   -0.9200
     13 C13       -15.0844   -3.7154   58.0452 C.3     1  ZINC000906038034   -0.6100
     14 C14       -14.8672   -2.3630   58.7268 C.3     1  ZINC000906038034   -0.4500
     15 S15       -14.0203   -2.6134   60.3113 S.o     1  ZINC000906038034    1.3300
     16 O16       -14.8518   -3.3730   61.1779 O.2     1  ZINC000906038034   -0.7600
     17 C17       -13.8556   -0.9263   60.9570 C.3     1  ZINC000906038034    0.1200
     18 F18       -15.1254   -0.3592   61.1097 F       1  ZINC000906038034   -0.1900
     19 F19       -13.2089   -0.9627   62.1971 F       1  ZINC000906038034   -0.1700
     20 F20       -13.1053   -0.1557   60.0623 F       1  ZINC000906038034   -0.1600
     21 C21       -12.8526   -4.0415   53.7672 C.2     1  ZINC000906038034   -0.2300
     22 S22       -11.4858   -3.8678   52.6680 S.3     1  ZINC000906038034    0.1600
     23 N23        -9.0444   -1.7200   52.1174 N.2     1  ZINC000906038034   -0.2400
     24 H24        -7.2936   -0.0132   50.2773 H       1  ZINC000906038034    0.0800
     25 H25        -6.1929    0.0291   51.6755 H       1  ZINC000906038034    0.0900
     26 H26        -6.6183   -1.5277   50.9245 H       1  ZINC000906038034    0.0900
     27 H27        -7.9871    1.1622   53.2590 H       1  ZINC000906038034    0.1800
     28 H28       -10.1267    0.2445   54.4627 H       1  ZINC000906038034    0.1600
     29 H29       -13.8407   -1.8127   56.0816 H       1  ZINC000906038034    0.1500
     30 H30       -14.9167   -2.9208   55.1972 H       1  ZINC000906038034    0.1600
     31 H31       -16.0117   -3.6892   57.4729 H       1  ZINC000906038034    0.1500
     32 H32       -15.1465   -4.4977   58.8017 H       1  ZINC000906038034    0.1500
     33 H33       -14.2574   -1.7267   58.0854 H       1  ZINC000906038034    0.1600
     34 H34       -15.8312   -1.8852   58.9015 H       1  ZINC000906038034    0.1300
     35 H35       -13.5533   -4.8633   53.7812 H       1  ZINC000906038034    0.1900
@<TRIPOS>BOND
     1     1     2    1
     2     1    24    1
     3     1    25    1
     4     1    26    1
     5     2    23    1
     6     2     3    1
     7     3     4    2
     8     3    27    1
     9     4     5    1
    10     4    28    1
    11     5     6    1
    12     5    23    2
    13     6    22    1
    14     6     7    2
    15     7     8    1
    16     8     9    1
    17     8    21    2
    18     9    10    1
    19     9    29    1
    20     9    30    1
    21    10    11    2
    22    10    12    2
    23    10    13    1
    24    13    14    1
    25    13    31    1
    26    13    32    1
    27    14    15    1
    28    14    33    1
    29    14    34    1
    30    15    16    2
    31    15    17    1
    32    17    18    1
    33    17    19    1
    34    17    20    1
    35    21    22    1
    36    21    35    1
@<TRIPOS>SUBSTRUCTURE
     1 ZINC000906038034        1 TEMP              0 ****  ****    0 ROOT


##########                                Name:    ZINC001217683559
##########                DOCK_Rotatable_Bonds:                   3
##########                         Heavy_Atoms:                  25
##########                    Molecular_Weight:             397.234
##########                DOCK_Rotatable_Bonds:                   3
##########                       Formal_Charge:          0.00999987
##########                     HBond_Acceptors:                   7
##########                        HBond_Donors:                   0
##########                         Heavy_Atoms:                  25
##########                          Grid_Score:          -34.364964
##########                     Grid_vdw_energy:          -34.030132
##########                      Grid_es_energy:           -0.334833
##########           Internal_energy_repulsive:           30.953802

@<TRIPOS>MOLECULE
ZINC001217683559
 38 42 1 0 0
SMALL
USER_CHARGES


@<TRIPOS>ATOM
      1 Br1        -7.8001    0.5444   65.6359 Br      1  ZINC001217683559    0.0100
      2 C2         -9.4755    1.3828   65.3792 C.ar    1  ZINC001217683559   -0.1200
      3 C3         -9.9504    2.3017   66.3014 C.ar    1  ZINC001217683559   -0.0500
      4 C4        -11.1844    2.8918   66.0722 C.ar    1  ZINC001217683559   -0.1500
      5 C5        -11.9002    2.5491   64.9391 C.ar    1  ZINC001217683559    0.1200
      6 N6        -11.4257    1.6722   64.0787 N.ar    1  ZINC001217683559   -0.4400
      7 C7        -10.2478    1.0898   64.2569 C.ar    1  ZINC001217683559    0.2200
      8 C8         -9.7539    0.1069   63.2596 C.2     1  ZINC001217683559    0.2100
      9 N9         -8.6037   -0.5155   63.2893 N.2     1  ZINC001217683559   -0.3300
     10 O10        -8.4983   -1.2530   62.3324 O.3     1  ZINC001217683559    0.1000
     11 C11        -9.6015   -1.1753   61.5717 C.2     1  ZINC001217683559    0.2300
     12 C12        -9.8622   -1.9167   60.3207 C.2     1  ZINC001217683559   -0.0600
     13 C13       -10.5681   -1.3270   59.3104 C.2     1  ZINC001217683559    0.1800
     14 N14       -10.8119   -2.0004   58.1588 N.pl3   1  ZINC001217683559   -0.2900
     15 N15       -11.4901   -1.6638   56.9785 N.2     1  ZINC001217683559   -0.3300
     16 C16       -11.4191   -2.7047   56.1830 C.2     1  ZINC001217683559    0.2800
     17 C17       -12.0152   -2.7835   54.8012 C.3     1  ZINC001217683559   -0.0300
     18 C18       -11.0038   -3.1898   53.7163 C.3     1  ZINC001217683559   -0.1200
     19 C19       -12.1225   -4.0513   53.1069 C.3     1  ZINC001217683559   -0.1400
     20 C20       -12.7356   -4.1119   54.5160 C.3     1  ZINC001217683559   -0.1200
     21 N21       -10.7424   -3.6763   56.7794 N.2     1  ZINC001217683559   -0.5300
     22 C22       -10.3580   -3.2784   57.9864 C.2     1  ZINC001217683559    0.2900
     23 C23        -9.6275   -3.9096   59.0120 C.2     1  ZINC001217683559   -0.1000
     24 C24        -9.3764   -3.2364   60.1650 C.2     1  ZINC001217683559   -0.0200
     25 N25       -10.4113   -0.3134   62.1588 N.2     1  ZINC001217683559   -0.4300
     26 H26        -9.3727    2.5524   67.1788 H       1  ZINC001217683559    0.1600
     27 H27       -11.5829    3.6116   66.7718 H       1  ZINC001217683559    0.1500
     28 H28       -12.8615    3.0068   64.7578 H       1  ZINC001217683559    0.1800
     29 H29       -10.9344   -0.3181   59.4298 H       1  ZINC001217683559    0.1900
     30 H30       -12.6041   -1.9034   54.5434 H       1  ZINC001217683559    0.1200
     31 H31       -10.6926   -2.3629   53.0778 H       1  ZINC001217683559    0.0700
     32 H32       -10.1641   -3.7707   54.0976 H       1  ZINC001217683559    0.1000
     33 H33       -12.7402   -3.5176   52.3845 H       1  ZINC001217683559    0.0800
     34 H34       -11.7780   -5.0175   52.7386 H       1  ZINC001217683559    0.0800
     35 H35       -12.3693   -4.9449   55.1160 H       1  ZINC001217683559    0.0900
     36 H36       -13.8225   -4.0295   54.5232 H       1  ZINC001217683559    0.0700
     37 H37        -9.2667   -4.9191   58.8815 H       1  ZINC001217683559    0.1700
     38 H38        -8.8177   -3.7079   60.9598 H       1  ZINC001217683559    0.1700
@<TRIPOS>BOND
     1     1     2    1
     2     2     7   ar
     3     2     3   ar
     4     3     4   ar
     5     3    26    1
     6     4     5   ar
     7     4    27    1
     8     5     6   ar
     9     5    28    1
    10     6     7   ar
    11     7     8    1
    12     8    25    1
    13     8     9    2
    14     9    10    1
    15    10    11    1
    16    11    12    1
    17    11    25    2
    18    12    24    1
    19    12    13    2
    20    13    14    1
    21    13    29    1
    22    14    22    1
    23    14    15    1
    24    15    16    2
    25    16    17    1
    26    16    21    1
    27    17    20    1
    28    17    18    1
    29    17    30    1
    30    18    19    1
    31    18    31    1
    32    18    32    1
    33    19    20    1
    34    19    33    1
    35    19    34    1
    36    20    35    1
    37    20    36    1
    38    21    22    2
    39    22    23    1
    40    23    24    2
    41    23    37    1
    42    24    38    1
@<TRIPOS>SUBSTRUCTURE
     1 ZINC001217683559        1 TEMP              0 ****  ****    0 ROOT


##########                                Name:    ZINC000502834785
##########                DOCK_Rotatable_Bonds:                   9
##########                         Heavy_Atoms:                  26
##########                    Molecular_Weight:             356.468
##########                DOCK_Rotatable_Bonds:                   9
##########                       Formal_Charge:           0.0199998
##########                     HBond_Acceptors:                   6
##########                        HBond_Donors:                   2
##########                         Heavy_Atoms:                  26
##########                          Grid_Score:          -34.343758
##########                     Grid_vdw_energy:          -32.765083
##########                      Grid_es_energy:           -1.578673
##########           Internal_energy_repulsive:           18.290960

@<TRIPOS>MOLECULE
ZINC000502834785
 54 56 1 0 0
SMALL
USER_CHARGES


@<TRIPOS>ATOM
      1 C1        -11.5438    2.1676   64.2934 C.3     1  ZINC000502834785   -0.1800
      2 C2        -10.1613    1.5323   64.1321 C.3     1  ZINC000502834785    0.0800
      3 C3         -9.5046    1.3844   65.5061 C.3     1  ZINC000502834785   -0.1500
      4 O4        -10.2965    0.2445   63.5276 O.3     1  ZINC000502834785   -0.3800
      5 C5         -9.1372   -0.1861   62.8117 C.3     1  ZINC000502834785    0.1000
      6 C6         -9.5530   -1.0867   61.6772 C.ar    1  ZINC000502834785   -0.0800
      7 C7         -8.8403   -2.2417   61.4147 C.ar    1  ZINC000502834785   -0.1000
      8 C8         -9.2218   -3.0678   60.3741 C.ar    1  ZINC000502834785   -0.1000
      9 C9        -10.3163   -2.7391   59.5963 C.ar    1  ZINC000502834785   -0.1000
     10 C10       -10.7319   -3.6395   58.4614 C.3     1  ZINC000502834785    0.1600
     11 N11       -10.5386   -2.9412   57.1882 N.am    1  ZINC000502834785   -0.7300
     12 C12       -11.1687   -3.3758   56.0789 C.2     1  ZINC000502834785    0.5100
     13 O13       -11.8968   -4.3441   56.1350 O.2     1  ZINC000502834785   -0.5200
     14 C14       -10.9684   -2.6585   54.7687 C.3     1  ZINC000502834785    0.0300
     15 N15       -12.2368   -2.0511   54.3441 N.3     1  ZINC000502834785   -0.5000
     16 C16       -13.1778   -3.0793   53.8510 C.3     1  ZINC000502834785    0.0500
     17 C17       -13.9769   -2.3768   52.7252 C.3     1  ZINC000502834785   -0.1300
     18 C18       -12.8837   -1.4925   52.0697 C.3     1  ZINC000502834785   -0.1300
     19 C19       -12.0168   -1.0631   53.2721 C.3     1  ZINC000502834785    0.1500
     20 H20       -12.3193   -0.0728   53.6125 H       1  ZINC000502834785    0.1100
     21 C21       -10.5629   -1.0467   52.8759 C.2     1  ZINC000502834785    0.0600
     22 N22        -9.9669   -1.9230   52.1086 N.2     1  ZINC000502834785   -0.2900
     23 N23        -8.6215   -1.5529   51.9846 N.pl3   1  ZINC000502834785   -0.4800
     24 C24        -8.4328   -0.4263   52.7030 C.2     1  ZINC000502834785    0.0600
     25 C25        -9.6189   -0.0887   53.2600 C.2     1  ZINC000502834785   -0.2600
     26 C26       -11.0298   -1.5848   59.8596 C.ar    1  ZINC000502834785   -0.1000
     27 C27       -10.6506   -0.7607   60.9027 C.ar    1  ZINC000502834785   -0.1000
     28 H28       -12.0117    2.2729   63.3145 H       1  ZINC000502834785    0.0600
     29 H29       -12.1639    1.5326   64.9261 H       1  ZINC000502834785    0.0600
     30 H30       -11.4408    3.1499   64.7545 H       1  ZINC000502834785    0.0700
     31 H31        -9.5412    2.1674   63.4995 H       1  ZINC000502834785    0.0600
     32 H32       -10.1247    0.7494   66.1387 H       1  ZINC000502834785    0.0600
     33 H33        -8.5197    0.9318   65.3911 H       1  ZINC000502834785    0.0600
     34 H34        -9.4014    2.3667   65.9671 H       1  ZINC000502834785    0.0700
     35 H35        -8.6131    0.6824   62.4128 H       1  ZINC000502834785    0.0600
     36 H36        -8.4761   -0.7316   63.4851 H       1  ZINC000502834785    0.0600
     37 H37        -7.9853   -2.4985   62.0224 H       1  ZINC000502834785    0.1300
     38 H38        -8.6646   -3.9698   60.1685 H       1  ZINC000502834785    0.1300
     39 H39       -10.1251   -4.5448   58.4751 H       1  ZINC000502834785    0.0800
     40 H40       -11.7830   -3.9048   58.5744 H       1  ZINC000502834785    0.0800
     41 H41        -9.9572   -2.1660   57.1435 H       1  ZINC000502834785    0.4000
     42 H42       -10.2160   -1.8796   54.8922 H       1  ZINC000502834785    0.1000
     43 H43       -10.6349   -3.3693   54.0127 H       1  ZINC000502834785    0.0800
     44 H44       -12.6312   -3.9337   53.4519 H       1  ZINC000502834785    0.0400
     45 H45       -13.8472   -3.3959   54.6508 H       1  ZINC000502834785    0.1000
     46 H46       -14.3701   -3.1031   52.0138 H       1  ZINC000502834785    0.0800
     47 H47       -14.7782   -1.7645   53.1388 H       1  ZINC000502834785    0.0800
     48 H48       -12.2955   -2.0714   51.3577 H       1  ZINC000502834785    0.0800
     49 H49       -13.3297   -0.6233   51.5863 H       1  ZINC000502834785    0.0800
     50 H50        -7.9451   -2.0233   51.4726 H       1  ZINC000502834785    0.4400
     51 H51        -7.5027    0.1120   52.8106 H       1  ZINC000502834785    0.1800
     52 H52        -9.8028    0.7659   53.8942 H       1  ZINC000502834785    0.1500
     53 H53       -11.8852   -1.3282   59.2522 H       1  ZINC000502834785    0.1300
     54 H54       -11.2081    0.1411   61.1085 H       1  ZINC000502834785    0.1200
@<TRIPOS>BOND
     1     1     2    1
     2     1    28    1
     3     1    29    1
     4     1    30    1
     5     2     3    1
     6     2     4    1
     7     2    31    1
     8     3    32    1
     9     3    33    1
    10     3    34    1
    11     4     5    1
    12     5     6    1
    13     5    35    1
    14     5    36    1
    15     6    27   ar
    16     6     7   ar
    17     7     8   ar
    18     7    37    1
    19     8     9   ar
    20     8    38    1
    21     9    10    1
    22     9    26   ar
    23    10    11    1
    24    10    39    1
    25    10    40    1
    26    11    12   am
    27    11    41    1
    28    12    13    2
    29    12    14    1
    30    14    15    1
    31    14    42    1
    32    14    43    1
    33    15    19    1
    34    15    16    1
    35    16    17    1
    36    16    44    1
    37    16    45    1
    38    17    18    1
    39    17    46    1
    40    17    47    1
    41    18    19    1
    42    18    48    1
    43    18    49    1
    44    19    20    1
    45    19    21    1
    46    21    25    1
    47    21    22    2
    48    22    23    1
    49    23    24    1
    50    23    50    1
    51    24    25    2
    52    24    51    1
    53    25    52    1
    54    26    27   ar
    55    26    53    1
    56    27    54    1
@<TRIPOS>SUBSTRUCTURE
     1 ZINC000502834785        1 TEMP              0 ****  ****    0 ROOT


##########                                Name:    ZINC000050607728
##########                DOCK_Rotatable_Bonds:                  10
##########                         Heavy_Atoms:                  31
##########                    Molecular_Weight:             416.476
##########                DOCK_Rotatable_Bonds:                  10
##########                       Formal_Charge:          -0.0199995
##########                     HBond_Acceptors:                   6
##########                        HBond_Donors:                   1
##########                         Heavy_Atoms:                  31
##########                          Grid_Score:          -34.325233
##########                     Grid_vdw_energy:          -34.397305
##########                      Grid_es_energy:            0.072071
##########           Internal_energy_repulsive:           27.772497

@<TRIPOS>MOLECULE
ZINC000050607728
 55 57 1 0 0
SMALL
USER_CHARGES


@<TRIPOS>ATOM
      1 C1        -13.3684   -4.9096   54.5730 C.3     1  ZINC000050607728    0.0800
      2 N2        -12.6310   -4.4892   55.7670 N.am    1  ZINC000050607728   -0.6200
      3 C3        -13.2811   -4.5242   57.0794 C.3     1  ZINC000050607728    0.0700
      4 C4        -11.3547   -4.0702   55.6582 C.2     1  ZINC000050607728    0.5600
      5 O5        -10.8153   -4.0412   54.5693 O.2     1  ZINC000050607728   -0.5300
      6 C6        -10.6106   -3.6459   56.8632 C.ar    1  ZINC000050607728   -0.1400
      7 C7         -9.9883   -4.5965   57.6735 C.ar    1  ZINC000050607728   -0.0800
      8 C8         -9.2950   -4.1939   58.7964 C.ar    1  ZINC000050607728   -0.1300
      9 C9         -9.2165   -2.8512   59.1201 C.ar    1  ZINC000050607728   -0.0700
     10 C10        -9.8318   -1.9035   58.3212 C.ar    1  ZINC000050607728   -0.1100
     11 C11        -9.7415   -0.4430   58.6818 C.3     1  ZINC000050607728    0.1100
     12 O12       -10.6144   -0.1678   59.8089 O.3     1  ZINC000050607728   -0.3400
     13 C13       -10.5830    1.0751   60.3148 C.2     1  ZINC000050607728    0.4700
     14 O14        -9.5592    1.7158   60.2800 O.2     1  ZINC000050607728   -0.5000
     15 C15       -11.8247    1.6713   60.9262 C.3     1  ZINC000050607728    0.2000
     16 H16       -11.9010    2.7211   60.6432 H       1  ZINC000050607728    0.1400
     17 N17       -13.0031    0.9480   60.4420 N.am    1  ZINC000050607728   -0.7100
     18 C18       -13.2270   -0.3196   60.8415 C.2     1  ZINC000050607728    0.5700
     19 O19       -12.4522   -0.8621   61.6048 O.2     1  ZINC000050607728   -0.5200
     20 C20       -14.4154   -1.0500   60.3514 C.ar    1  ZINC000050607728   -0.1400
     21 C21       -14.5792   -2.4034   60.6510 C.ar    1  ZINC000050607728   -0.0800
     22 C22       -15.6906   -3.0789   60.1910 C.ar    1  ZINC000050607728   -0.1300
     23 C23       -16.6415   -2.4180   59.4340 C.ar    1  ZINC000050607728   -0.0900
     24 C24       -16.4849   -1.0766   59.1331 C.ar    1  ZINC000050607728   -0.1300
     25 C25       -15.3813   -0.3878   59.5920 C.ar    1  ZINC000050607728   -0.0600
     26 C26       -11.7487    1.5600   62.4272 C.ar    1  ZINC000050607728   -0.1000
     27 C27       -12.7753    2.0543   63.2098 C.ar    1  ZINC000050607728   -0.1000
     28 C28       -12.7055    1.9522   64.5866 C.ar    1  ZINC000050607728   -0.1200
     29 C29       -11.6094    1.3555   65.1808 C.ar    1  ZINC000050607728   -0.1100
     30 C30       -10.5830    0.8605   64.3981 C.ar    1  ZINC000050607728   -0.1200
     31 C31       -10.6547    0.9586   63.0211 C.ar    1  ZINC000050607728   -0.0800
     32 C32       -10.5227   -2.2922   57.1924 C.ar    1  ZINC000050607728   -0.0400
     33 H33       -13.8794   -4.0496   54.1399 H       1  ZINC000050607728    0.0600
     34 H34       -12.6725   -5.3239   53.8433 H       1  ZINC000050607728    0.0800
     35 H35       -14.1018   -5.6679   54.8470 H       1  ZINC000050607728    0.0700
     36 H36       -13.1872   -5.5233   57.5049 H       1  ZINC000050607728    0.0600
     37 H37       -12.8037   -3.8012   57.7409 H       1  ZINC000050607728    0.0800
     38 H38       -14.3363   -4.2740   56.9690 H       1  ZINC000050607728    0.0700
     39 H39       -10.0494   -5.6452   57.4222 H       1  ZINC000050607728    0.1400
     40 H40        -8.8129   -4.9286   59.4244 H       1  ZINC000050607728    0.1400
     41 H41        -8.6730   -2.5413   60.0004 H       1  ZINC000050607728    0.1300
     42 H42        -8.7138   -0.1978   58.9497 H       1  ZINC000050607728    0.0900
     43 H43       -10.0486    0.1615   57.8283 H       1  ZINC000050607728    0.0900
     44 H44       -13.6221    1.3814   59.8338 H       1  ZINC000050607728    0.4100
     45 H45       -13.8373   -2.9206   61.2413 H       1  ZINC000050607728    0.1300
     46 H46       -15.8185   -4.1261   60.4221 H       1  ZINC000050607728    0.1300
     47 H47       -17.5096   -2.9515   59.0760 H       1  ZINC000050607728    0.1300
     48 H48       -17.2307   -0.5665   58.5413 H       1  ZINC000050607728    0.1300
     49 H49       -15.2605    0.6593   59.3567 H       1  ZINC000050607728    0.1400
     50 H50       -13.6318    2.5204   62.7456 H       1  ZINC000050607728    0.1200
     51 H51       -13.5074    2.3390   65.1980 H       1  ZINC000050607728    0.1200
     52 H52       -11.5545    1.2764   66.2565 H       1  ZINC000050607728    0.1200
     53 H53        -9.7264    0.3945   64.8624 H       1  ZINC000050607728    0.1300
     54 H54        -9.8530    0.5719   62.4097 H       1  ZINC000050607728    0.1300
     55 H55       -11.0021   -1.5515   56.5695 H       1  ZINC000050607728    0.1300
@<TRIPOS>BOND
     1     1     2    1
     2     1    33    1
     3     1    34    1
     4     1    35    1
     5     2     3    1
     6     2     4   am
     7     3    36    1
     8     3    37    1
     9     3    38    1
    10     4     5    2
    11     4     6    1
    12     6    32   ar
    13     6     7   ar
    14     7     8   ar
    15     7    39    1
    16     8     9   ar
    17     8    40    1
    18     9    10   ar
    19     9    41    1
    20    10    11    1
    21    10    32   ar
    22    11    12    1
    23    11    42    1
    24    11    43    1
    25    12    13    1
    26    13    14    2
    27    13    15    1
    28    15    16    1
    29    15    17    1
    30    15    26    1
    31    17    18   am
    32    17    44    1
    33    18    19    2
    34    18    20    1
    35    20    25   ar
    36    20    21   ar
    37    21    22   ar
    38    21    45    1
    39    22    23   ar
    40    22    46    1
    41    23    24   ar
    42    23    47    1
    43    24    25   ar
    44    24    48    1
    45    25    49    1
    46    26    31   ar
    47    26    27   ar
    48    27    28   ar
    49    27    50    1
    50    28    29   ar
    51    28    51    1
    52    29    30   ar
    53    29    52    1
    54    30    31   ar
    55    30    53    1
    56    31    54    1
    57    32    55    1
@<TRIPOS>SUBSTRUCTURE
     1 ZINC000050607728        1 TEMP              0 ****  ****    0 ROOT


##########                                Name:    ZINC001347442583
##########                DOCK_Rotatable_Bonds:                   9
##########                         Heavy_Atoms:                  27
##########                    Molecular_Weight:             370.492
##########                DOCK_Rotatable_Bonds:                   9
##########                       Formal_Charge:          -0.0400009
##########                     HBond_Acceptors:                   5
##########                        HBond_Donors:                   1
##########                         Heavy_Atoms:                  27
##########                          Grid_Score:          -34.323997
##########                     Grid_vdw_energy:          -34.002419
##########                      Grid_es_energy:           -0.321580
##########           Internal_energy_repulsive:           13.387869

@<TRIPOS>MOLECULE
ZINC001347442583
 57 60 1 0 0
SMALL
USER_CHARGES


@<TRIPOS>ATOM
      1 O1        -13.1626   -2.1705   60.7560 O.2     1  ZINC001347442583   -0.5400
      2 C2        -12.6755   -1.9672   59.6641 C.2     1  ZINC001347442583    0.5400
      3 C3        -13.5543   -1.5516   58.5125 C.3     1  ZINC001347442583   -0.1400
      4 C4        -13.5533   -2.6504   57.4478 C.3     1  ZINC001347442583   -0.1000
      5 C5        -14.7342   -2.4411   56.4978 C.3     1  ZINC001347442583   -0.1100
      6 C6        -14.7594   -3.5652   55.4601 C.3     1  ZINC001347442583   -0.0800
      7 C7        -13.6425   -3.3594   54.4695 C.ar    1  ZINC001347442583   -0.0800
      8 C8        -12.4709   -4.0834   54.5886 C.ar    1  ZINC001347442583   -0.1200
      9 C9        -11.4464   -3.8946   53.6799 C.ar    1  ZINC001347442583   -0.1200
     10 C10       -11.5937   -2.9822   52.6519 C.ar    1  ZINC001347442583   -0.1300
     11 C11       -12.7656   -2.2590   52.5323 C.ar    1  ZINC001347442583   -0.1200
     12 C12       -13.7918   -2.4509   53.4384 C.ar    1  ZINC001347442583   -0.1200
     13 N13       -11.3475   -2.1073   59.4818 N.am    1  ZINC001347442583   -0.6300
     14 C14       -10.4983   -1.9163   58.2573 C.3     1  ZINC001347442583    0.1200
     15 H15       -11.0286   -1.6190   57.3527 H       1  ZINC001347442583    0.1200
     16 C16        -9.7640   -3.2890   58.1859 C.3     1  ZINC001347442583   -0.1300
     17 C17        -9.6020   -3.6886   59.6733 C.3     1  ZINC001347442583   -0.1300
     18 C18       -10.2597   -2.4965   60.4423 C.3     1  ZINC001347442583    0.1200
     19 H19       -10.5810   -2.7139   61.4609 H       1  ZINC001347442583    0.1200
     20 C20        -9.2555   -1.3142   60.2920 C.3     1  ZINC001347442583    0.1300
     21 H21        -8.2385   -1.6450   60.5028 H       1  ZINC001347442583    0.1100
     22 N22        -9.6287   -0.2048   61.1731 N.am    1  ZINC001347442583   -0.7200
     23 C23        -9.3095   -0.2469   62.4818 C.2     1  ZINC001347442583    0.5300
     24 O24        -8.7120   -1.2025   62.9299 O.2     1  ZINC001347442583   -0.5300
     25 C25        -9.6951    0.8936   63.3884 C.3     1  ZINC001347442583   -0.1500
     26 H26        -9.5616    1.8503   62.8836 H       1  ZINC001347442583    0.1100
     27 C27       -11.1563    0.7320   63.8889 C.3     1  ZINC001347442583   -0.1400
     28 C28       -11.0874    1.4801   65.2441 C.3     1  ZINC001347442583    0.0500
     29 O29        -9.7853    1.1811   65.7718 O.3     1  ZINC001347442583   -0.3800
     30 C30        -8.8864    0.8482   64.7027 C.3     1  ZINC001347442583    0.0700
     31 C31        -9.4415   -0.8984   58.7825 C.3     1  ZINC001347442583   -0.1400
     32 H32       -14.5717   -1.3935   58.8705 H       1  ZINC001347442583    0.0900
     33 H33       -13.1734   -0.6264   58.0801 H       1  ZINC001347442583    0.0900
     34 H34       -12.6215   -2.6091   56.8839 H       1  ZINC001347442583    0.0700
     35 H35       -13.6431   -3.6237   57.9302 H       1  ZINC001347442583    0.0700
     36 H36       -15.6641   -2.4506   57.0664 H       1  ZINC001347442583    0.0600
     37 H37       -14.6276   -1.4817   55.9915 H       1  ZINC001347442583    0.0600
     38 H38       -14.6291   -4.5246   55.9606 H       1  ZINC001347442583    0.0700
     39 H39       -15.7155   -3.5551   54.9368 H       1  ZINC001347442583    0.0700
     40 H40       -12.3558   -4.7961   55.3917 H       1  ZINC001347442583    0.1200
     41 H41       -10.5307   -4.4596   53.7735 H       1  ZINC001347442583    0.1200
     42 H42       -10.7930   -2.8342   51.9424 H       1  ZINC001347442583    0.1200
     43 H43       -12.8807   -1.5460   51.7292 H       1  ZINC001347442583    0.1200
     44 H44       -14.7075   -1.8859   53.3450 H       1  ZINC001347442583    0.1200
     45 H45       -10.3713   -4.0223   57.6553 H       1  ZINC001347442583    0.0700
     46 H46        -8.7897   -3.1791   57.7097 H       1  ZINC001347442583    0.0800
     47 H47       -10.1291   -4.6200   59.8803 H       1  ZINC001347442583    0.0800
     48 H48        -8.5476   -3.7767   59.9346 H       1  ZINC001347442583    0.0800
     49 H49       -10.1055    0.5600   60.8144 H       1  ZINC001347442583    0.4000
     50 H50       -11.8598    1.2136   63.2097 H       1  ZINC001347442583    0.0900
     51 H51       -11.4085   -0.3186   64.0326 H       1  ZINC001347442583    0.0900
     52 H52       -11.1957    2.5537   65.0895 H       1  ZINC001347442583    0.0700
     53 H53       -11.8620    1.1142   65.9181 H       1  ZINC001347442583    0.0900
     54 H54        -8.4875   -0.1548   64.8539 H       1  ZINC001347442583    0.0700
     55 H55        -8.0708    1.5704   64.6670 H       1  ZINC001347442583    0.0800
     56 H56        -8.5093   -1.0244   58.2318 H       1  ZINC001347442583    0.0900
     57 H57        -9.7965    0.1295   58.7084 H       1  ZINC001347442583    0.0800
@<TRIPOS>BOND
     1     1     2    2
     2     2     3    1
     3     2    13   am
     4     3     4    1
     5     3    32    1
     6     3    33    1
     7     4     5    1
     8     4    34    1
     9     4    35    1
    10     5     6    1
    11     5    36    1
    12     5    37    1
    13     6     7    1
    14     6    38    1
    15     6    39    1
    16     7    12   ar
    17     7     8   ar
    18     8     9   ar
    19     8    40    1
    20     9    10   ar
    21     9    41    1
    22    10    11   ar
    23    10    42    1
    24    11    12   ar
    25    11    43    1
    26    12    44    1
    27    13    18    1
    28    13    14    1
    29    14    15    1
    30    14    31    1
    31    14    16    1
    32    16    17    1
    33    16    45    1
    34    16    46    1
    35    17    18    1
    36    17    47    1
    37    17    48    1
    38    18    19    1
    39    18    20    1
    40    20    21    1
    41    20    22    1
    42    20    31    1
    43    22    23   am
    44    22    49    1
    45    23    24    2
    46    23    25    1
    47    25    26    1
    48    25    30    1
    49    25    27    1
    50    27    28    1
    51    27    50    1
    52    27    51    1
    53    28    29    1
    54    28    52    1
    55    28    53    1
    56    29    30    1
    57    30    54    1
    58    30    55    1
    59    31    56    1
    60    31    57    1
@<TRIPOS>SUBSTRUCTURE
     1 ZINC001347442583        1 TEMP              0 ****  ****    0 ROOT


##########                                Name:    ZINC000937331732
##########                DOCK_Rotatable_Bonds:                   6
##########                         Heavy_Atoms:                  24
##########                    Molecular_Weight:              333.35
##########                DOCK_Rotatable_Bonds:                   6
##########                       Formal_Charge:          -0.0299999
##########                     HBond_Acceptors:                  10
##########                        HBond_Donors:                   1
##########                         Heavy_Atoms:                  24
##########                          Grid_Score:          -34.314793
##########                     Grid_vdw_energy:          -32.478130
##########                      Grid_es_energy:           -1.836661
##########           Internal_energy_repulsive:           13.907001

@<TRIPOS>MOLECULE
ZINC000937331732
 43 45 1 0 0
SMALL
USER_CHARGES


@<TRIPOS>ATOM
      1 C1        -12.9111   -4.4941   55.0461 C.3     1  ZINC000937331732    0.0600
      2 N2        -12.1034   -3.2740   55.1195 N.am    1  ZINC000937331732   -0.6100
      3 C3        -11.2662   -3.0817   56.1579 C.2     1  ZINC000937331732    0.5000
      4 O4        -10.5963   -2.0724   56.2179 O.2     1  ZINC000937331732   -0.5200
      5 C5        -11.1621   -4.1207   57.2445 C.3     1  ZINC000937331732    0.1500
      6 N6        -10.4486   -3.5565   58.3929 N.am    1  ZINC000937331732   -0.4400
      7 N7         -9.1673   -3.9160   58.8333 N.2     1  ZINC000937331732   -0.2800
      8 C8         -8.8827   -3.1993   59.8724 C.2     1  ZINC000937331732    0.2600
      9 N9         -9.9420   -2.3670   60.1406 N.am    1  ZINC000937331732   -0.5600
     10 C10       -10.0148   -1.3975   61.2365 C.3     1  ZINC000937331732    0.1000
     11 C11       -10.9006   -2.5904   59.2195 C.2     1  ZINC000937331732    0.6500
     12 O12       -11.9796   -2.0291   59.1507 O.2     1  ZINC000937331732   -0.5500
     13 C13       -12.2058   -2.2631   54.0640 C.3     1  ZINC000937331732    0.1300
     14 H14       -11.7735   -1.3184   54.3937 H       1  ZINC000937331732    0.1200
     15 C15       -11.5196   -2.7566   52.7628 C.3     1  ZINC000937331732   -0.1500
     16 C16       -12.2891   -1.9560   51.6827 C.3     1  ZINC000937331732    0.1000
     17 N17       -13.6798   -1.9061   52.1693 N.am    1  ZINC000937331732   -0.6000
     18 C18       -14.7747   -1.7353   51.4022 C.2     1  ZINC000937331732    0.6200
     19 O19       -15.8775   -1.7091   51.9139 O.2     1  ZINC000937331732   -0.5400
     20 C20       -14.6354   -1.5807   49.9428 C.2     1  ZINC000937331732    0.1400
     21 N21       -15.3269   -2.2285   49.0293 N.2     1  ZINC000937331732   -0.4400
     22 C22       -14.9318   -1.8318   47.8217 C.2     1  ZINC000937331732   -0.0300
     23 C23       -13.9577   -0.9017   47.9755 C.2     1  ZINC000937331732   -0.0200
     24 N24       -13.7703   -0.7357   49.3062 N.pl3   1  ZINC000937331732   -0.5200
     25 C25       -13.6751   -2.0706   53.6333 C.3     1  ZINC000937331732    0.1000
     26 H26       -13.8644   -4.3295   55.5484 H       1  ZINC000937331732    0.0700
     27 H27       -13.0901   -4.7491   54.0015 H       1  ZINC000937331732    0.0800
     28 H28       -12.3798   -5.3115   55.5337 H       1  ZINC000937331732    0.0800
     29 H29       -12.1622   -4.4259   57.5523 H       1  ZINC000937331732    0.1300
     30 H30       -10.6176   -4.9867   56.8682 H       1  ZINC000937331732    0.1300
     31 H31        -7.9630   -3.2478   60.4366 H       1  ZINC000937331732    0.2300
     32 H32        -9.0924   -1.4342   61.8161 H       1  ZINC000937331732    0.1000
     33 H33       -10.1471   -0.3959   60.8273 H       1  ZINC000937331732    0.0800
     34 H34       -10.8590   -1.6409   61.8815 H       1  ZINC000937331732    0.0800
     35 H35       -10.4602   -2.5001   52.7586 H       1  ZINC000937331732    0.0900
     36 H36       -11.6609   -3.8290   52.6291 H       1  ZINC000937331732    0.0800
     37 H37       -11.8815   -0.9490   51.5946 H       1  ZINC000937331732    0.0800
     38 H38       -12.2412   -2.4708   50.7231 H       1  ZINC000937331732    0.1100
     39 H39       -15.3210   -2.1899   46.8801 H       1  ZINC000937331732    0.1800
     40 H40       -13.4321   -0.3870   47.1849 H       1  ZINC000937331732    0.1900
     41 H41       -13.1370   -0.1342   49.7282 H       1  ZINC000937331732    0.4300
     42 H42       -14.2582   -2.9491   53.9094 H       1  ZINC000937331732    0.0800
     43 H43       -14.0923   -1.1822   54.1074 H       1  ZINC000937331732    0.0800
@<TRIPOS>BOND
     1     1     2    1
     2     1    26    1
     3     1    27    1
     4     1    28    1
     5     2     3   am
     6     2    13    1
     7     3     4    2
     8     3     5    1
     9     5     6    1
    10     5    29    1
    11     5    30    1
    12     6    11   am
    13     6     7    1
    14     7     8    2
    15     8     9    1
    16     8    31    1
    17     9    10    1
    18     9    11   am
    19    10    32    1
    20    10    33    1
    21    10    34    1
    22    11    12    2
    23    13    14    1
    24    13    25    1
    25    13    15    1
    26    15    16    1
    27    15    35    1
    28    15    36    1
    29    16    17    1
    30    16    37    1
    31    16    38    1
    32    17    18   am
    33    17    25    1
    34    18    19    2
    35    18    20    1
    36    20    24    1
    37    20    21    2
    38    21    22    1
    39    22    23    2
    40    22    39    1
    41    23    24    1
    42    23    40    1
    43    24    41    1
    44    25    42    1
    45    25    43    1
@<TRIPOS>SUBSTRUCTURE
     1 ZINC000937331732        1 TEMP              0 ****  ****    0 ROOT


##########                                Name:    ZINC000277085192
##########                DOCK_Rotatable_Bonds:                   4
##########                         Heavy_Atoms:                  23
##########                    Molecular_Weight:             335.747
##########                DOCK_Rotatable_Bonds:                   4
##########                       Formal_Charge:         5.96046e-08
##########                     HBond_Acceptors:                   8
##########                        HBond_Donors:                   2
##########                         Heavy_Atoms:                  23
##########                          Grid_Score:          -34.309605
##########                     Grid_vdw_energy:          -31.922800
##########                      Grid_es_energy:           -2.386803
##########           Internal_energy_repulsive:            6.265171

@<TRIPOS>MOLECULE
ZINC000277085192
 37 39 1 0 0
SMALL
USER_CHARGES


@<TRIPOS>ATOM
      1 O1        -10.5572   -2.7924   61.2442 O.2     1  ZINC000277085192   -0.5000
      2 C2         -9.5931   -2.5997   60.5338 C.2     1  ZINC000277085192    0.5000
      3 C3         -9.2944   -3.5428   59.3970 C.3     1  ZINC000277085192    0.1100
      4 N4        -10.4119   -3.5353   58.4498 N.am    1  ZINC000277085192   -0.6000
      5 C5        -11.1809   -2.3055   58.2503 C.3     1  ZINC000277085192    0.1100
      6 C6        -11.5995   -2.1965   56.7823 C.3     1  ZINC000277085192   -0.1600
      7 C7        -12.1607   -3.5202   56.3274 C.2     1  ZINC000277085192    0.5200
      8 O8        -13.0650   -3.5504   55.5204 O.2     1  ZINC000277085192   -0.5000
      9 N9        -11.6571   -4.6679   56.8172 N.am    1  ZINC000277085192   -0.6700
     10 C10       -10.7132   -4.6552   57.7725 C.2     1  ZINC000277085192    0.7200
     11 O11       -10.1231   -5.6843   58.0369 O.2     1  ZINC000277085192   -0.5500
     12 N12        -8.7924   -1.5390   60.7576 N.am    1  ZINC000277085192   -0.6700
     13 C13        -9.0699   -0.6627   61.8138 C.ar    1  ZINC000277085192    0.1400
     14 C14        -8.6737   -0.9822   63.0992 C.ar    1  ZINC000277085192   -0.0400
     15 C15        -8.9521   -0.1045   64.1585 C.ar    1  ZINC000277085192   -0.1700
     16 C16        -9.6293    1.0879   63.9007 C.ar    1  ZINC000277085192   -0.0500
     17 C17       -10.0201    1.3966   62.6113 C.ar    1  ZINC000277085192   -0.0900
     18 C18        -9.7397    0.5324   61.5688 C.ar    1  ZINC000277085192   -0.0300
     19 Cl19      -10.2362    0.9323   59.9541 Cl      1  ZINC000277085192   -0.0500
     20 C20        -9.8091    1.8563   65.1883 C.3     1  ZINC000277085192   -0.0800
     21 C21        -9.1638    1.0060   66.2912 C.3     1  ZINC000277085192   -0.1700
     22 C22        -8.6365   -0.2228   65.5912 C.2     1  ZINC000277085192    0.4100
     23 O23        -8.0537   -1.1468   66.1177 O.2     1  ZINC000277085192   -0.4300
     24 H24        -8.3850   -3.2225   58.8885 H       1  ZINC000277085192    0.1300
     25 H25        -9.1562   -4.5508   59.7879 H       1  ZINC000277085192    0.1200
     26 H26       -12.0698   -2.3267   58.8807 H       1  ZINC000277085192    0.0800
     27 H27       -10.5667   -1.4457   58.5177 H       1  ZINC000277085192    0.1000
     28 H28       -12.3601   -1.4229   56.6769 H       1  ZINC000277085192    0.1300
     29 H29       -10.7318   -1.9406   56.1743 H       1  ZINC000277085192    0.1200
     30 H30       -11.9779   -5.5159   56.4727 H       1  ZINC000277085192    0.4300
     31 H31        -8.0237   -1.3827   60.1870 H       1  ZINC000277085192    0.4200
     32 H32        -8.1501   -1.9076   63.2884 H       1  ZINC000277085192    0.1500
     33 H33       -10.5443    2.3204   62.4162 H       1  ZINC000277085192    0.1500
     34 H34        -9.3096    2.8228   65.1203 H       1  ZINC000277085192    0.1000
     35 H35       -10.8699    1.9962   65.3957 H       1  ZINC000277085192    0.1000
     36 H36        -8.3464    1.5535   66.7604 H       1  ZINC000277085192    0.1100
     37 H37        -9.9086    0.7259   67.0363 H       1  ZINC000277085192    0.1100
@<TRIPOS>BOND
     1     1     2    2
     2     2     3    1
     3     2    12   am
     4     3     4    1
     5     3    24    1
     6     3    25    1
     7     4    10   am
     8     4     5    1
     9     5     6    1
    10     5    26    1
    11     5    27    1
    12     6     7    1
    13     6    28    1
    14     6    29    1
    15     7     8    2
    16     7     9   am
    17     9    10   am
    18     9    30    1
    19    10    11    2
    20    12    13    1
    21    12    31    1
    22    13    18   ar
    23    13    14   ar
    24    14    15   ar
    25    14    32    1
    26    15    22    1
    27    15    16   ar
    28    16    17   ar
    29    16    20    1
    30    17    18   ar
    31    17    33    1
    32    18    19    1
    33    20    21    1
    34    20    34    1
    35    20    35    1
    36    21    22    1
    37    21    36    1
    38    21    37    1
    39    22    23    2
@<TRIPOS>SUBSTRUCTURE
     1 ZINC000277085192        1 TEMP              0 ****  ****    0 ROOT


##########                                Name:    ZINC000766421809
##########                DOCK_Rotatable_Bonds:                   7
##########                         Heavy_Atoms:                  26
##########                    Molecular_Weight:             358.372
##########                DOCK_Rotatable_Bonds:                   7
##########                       Formal_Charge:         4.61936e-07
##########                     HBond_Acceptors:                   8
##########                        HBond_Donors:                   0
##########                         Heavy_Atoms:                  26
##########                          Grid_Score:          -34.302849
##########                     Grid_vdw_energy:          -35.020317
##########                      Grid_es_energy:            0.717468
##########           Internal_energy_repulsive:           10.188401

@<TRIPOS>MOLECULE
ZINC000766421809
 45 47 1 0 0
SMALL
USER_CHARGES


@<TRIPOS>ATOM
      1 C1        -15.7598   -2.7979   59.9688 C.3     1  ZINC000766421809   -0.0700
      2 C2        -14.7562   -3.2081   58.9220 C.2     1  ZINC000766421809    0.0700
      3 N3        -14.6750   -4.3851   58.3566 N.2     1  ZINC000766421809   -0.2900
      4 N4        -13.6139   -4.3593   57.4424 N.pl3   1  ZINC000766421809   -0.3700
      5 C5        -13.1789   -5.4726   56.5953 C.3     1  ZINC000766421809    0.1000
      6 C6        -13.0632   -3.1279   57.4799 C.2     1  ZINC000766421809    0.0700
      7 C7        -11.8924   -2.6528   56.6588 C.3     1  ZINC000766421809    0.1400
      8 O8        -10.7542   -3.5244   56.8891 O.3     1  ZINC000766421809   -0.3400
      9 C9        -10.2263   -3.5238   58.1233 C.2     1  ZINC000766421809    0.4700
     10 O10       -10.1512   -4.5548   58.7488 O.2     1  ZINC000766421809   -0.5000
     11 C11        -9.7272   -2.2372   58.7287 C.3     1  ZINC000766421809   -0.1100
     12 C12       -10.7296   -1.7425   59.7734 C.3     1  ZINC000766421809   -0.0200
     13 C13        -9.9924   -1.3309   61.0216 C.2     1  ZINC000766421809    0.1900
     14 N14       -10.3644   -0.4117   61.8773 N.2     1  ZINC000766421809   -0.4700
     15 C15        -9.4024   -0.3893   62.8275 C.2     1  ZINC000766421809    0.2200
     16 C16        -9.3648    0.4894   64.0225 C.ar    1  ZINC000766421809   -0.0300
     17 C17        -8.1441    0.9450   64.5165 C.ar    1  ZINC000766421809   -0.0500
     18 C18        -8.1136    1.7624   65.6278 C.ar    1  ZINC000766421809   -0.1500
     19 C19        -9.2945    2.1297   66.2524 C.ar    1  ZINC000766421809    0.1200
     20 F20        -9.2602    2.9298   67.3405 F       1  ZINC000766421809   -0.1300
     21 C21       -10.5106    1.6792   65.7641 C.ar    1  ZINC000766421809   -0.1200
     22 C22       -11.7919    2.0830   66.4472 C.3     1  ZINC000766421809   -0.1200
     23 C23       -10.5506    0.8661   64.6505 C.ar    1  ZINC000766421809   -0.0600
     24 N24        -8.5116   -1.2876   62.4960 N.2     1  ZINC000766421809   -0.3700
     25 O25        -8.8391   -1.8393   61.4666 O.3     1  ZINC000766421809    0.0900
     26 C26       -13.7544   -2.3944   58.3829 C.2     1  ZINC000766421809   -0.2400
     27 H27       -16.6475   -2.3936   59.4823 H       1  ZINC000766421809    0.0800
     28 H28       -16.0368   -3.6662   60.5666 H       1  ZINC000766421809    0.0700
     29 H29       -15.3210   -2.0372   60.6144 H       1  ZINC000766421809    0.0800
     30 H30       -13.7150   -5.4386   55.6469 H       1  ZINC000766421809    0.0800
     31 H31       -12.1077   -5.3913   56.4102 H       1  ZINC000766421809    0.0900
     32 H32       -13.3900   -6.4162   57.0984 H       1  ZINC000766421809    0.0900
     33 H33       -12.1577   -2.6734   55.6017 H       1  ZINC000766421809    0.0900
     34 H34       -11.6346   -1.6342   56.9488 H       1  ZINC000766421809    0.0900
     35 H35        -8.7619   -2.4098   59.2046 H       1  ZINC000766421809    0.1200
     36 H36        -9.6175   -1.4861   57.9464 H       1  ZINC000766421809    0.1200
     37 H37       -11.2766   -0.8877   59.3759 H       1  ZINC000766421809    0.1200
     38 H38       -11.4300   -2.5428   60.0123 H       1  ZINC000766421809    0.1200
     39 H39        -7.2231    0.6585   64.0305 H       1  ZINC000766421809    0.1500
     40 H40        -7.1680    2.1159   66.0113 H       1  ZINC000766421809    0.1500
     41 H41       -12.1636    3.0074   66.0053 H       1  ZINC000766421809    0.0800
     42 H42       -12.5348    1.2955   66.3208 H       1  ZINC000766421809    0.0800
     43 H43       -11.6039    2.2380   67.5096 H       1  ZINC000766421809    0.0700
     44 H44       -11.4988    0.5155   64.2707 H       1  ZINC000766421809    0.1400
     45 H45       -13.5624   -1.3645   58.6454 H       1  ZINC000766421809    0.1500
@<TRIPOS>BOND
     1     1     2    1
     2     1    27    1
     3     1    28    1
     4     1    29    1
     5     2    26    1
     6     2     3    2
     7     3     4    1
     8     4     5    1
     9     4     6    1
    10     5    30    1
    11     5    31    1
    12     5    32    1
    13     6     7    1
    14     6    26    2
    15     7     8    1
    16     7    33    1
    17     7    34    1
    18     8     9    1
    19     9    10    2
    20     9    11    1
    21    11    12    1
    22    11    35    1
    23    11    36    1
    24    12    13    1
    25    12    37    1
    26    12    38    1
    27    13    25    1
    28    13    14    2
    29    14    15    1
    30    15    16    1
    31    15    24    2
    32    16    23   ar
    33    16    17   ar
    34    17    18   ar
    35    17    39    1
    36    18    19   ar
    37    18    40    1
    38    19    20    1
    39    19    21   ar
    40    21    22    1
    41    21    23   ar
    42    22    41    1
    43    22    42    1
    44    22    43    1
    45    23    44    1
    46    24    25    1
    47    26    45    1
@<TRIPOS>SUBSTRUCTURE
     1 ZINC000766421809        1 TEMP              0 ****  ****    0 ROOT


##########                                Name:    ZINC000676204775
##########                DOCK_Rotatable_Bonds:                   4
##########                         Heavy_Atoms:                  25
##########                    Molecular_Weight:             359.452
##########                DOCK_Rotatable_Bonds:                   4
##########                       Formal_Charge:          0.00999978
##########                     HBond_Acceptors:                   8
##########                        HBond_Donors:                   2
##########                         Heavy_Atoms:                  25
##########                          Grid_Score:          -34.279133
##########                     Grid_vdw_energy:          -31.752672
##########                      Grid_es_energy:           -2.526460
##########           Internal_energy_repulsive:            6.568448

@<TRIPOS>MOLECULE
ZINC000676204775
 46 49 1 0 0
SMALL
USER_CHARGES


@<TRIPOS>ATOM
      1 C1        -11.3523   -4.0724   53.2291 C.3     1  ZINC000676204775   -0.1600
      2 C2        -12.3808   -3.0741   53.7644 C.3     1  ZINC000676204775    0.1600
      3 C3        -13.3538   -2.6953   52.6461 C.3     1  ZINC000676204775   -0.1600
      4 N4        -13.1222   -3.6831   54.8715 N.pl3   1  ZINC000676204775   -0.3900
      5 N5        -13.6471   -4.9796   54.8805 N.2     1  ZINC000676204775   -0.2500
      6 C6        -14.2477   -5.2113   56.0127 C.2     1  ZINC000676204775    0.0900
      7 C7        -14.1325   -4.0096   56.8326 C.ar    1  ZINC000676204775   -0.2100
      8 C8        -14.5685   -3.6623   58.1158 C.ar    1  ZINC000676204775    0.0800
      9 C9        -14.2913   -2.4204   58.6097 C.ar    1  ZINC000676204775   -0.7200
     10 S10       -14.8394   -1.9817   60.2258 S.o2    1  ZINC000676204775    2.6900
     11 O11       -15.2274   -0.6162   60.1611 O.2     1  ZINC000676204775   -0.9300
     12 O12       -15.7138   -3.0190   60.6483 O.2     1  ZINC000676204775   -0.9600
     13 N13       -13.5203   -2.0462   61.2250 N.am    1  ZINC000676204775   -1.1100
     14 C14       -12.3598   -1.1915   60.9623 C.3     1  ZINC000676204775    0.2400
     15 H15       -12.5918   -0.4937   60.1576 H       1  ZINC000676204775    0.1000
     16 C16       -11.1583   -2.0581   60.5654 C.3     1  ZINC000676204775   -0.1200
     17 C17        -9.8923   -1.1994   60.5252 C.3     1  ZINC000676204775   -0.1200
     18 C18        -9.4733   -0.8280   61.9532 C.3     1  ZINC000676204775   -0.0400
     19 C19       -10.6777   -0.2641   62.6659 C.2     1  ZINC000676204775   -0.2300
     20 C20       -10.7135    0.4577   63.8013 C.2     1  ZINC000676204775    0.0600
     21 N21       -12.0082    0.7472   64.0615 N.pl3   1  ZINC000676204775   -0.4800
     22 N22       -12.7920    0.1792   63.0456 N.2     1  ZINC000676204775   -0.2400
     23 C23       -11.9980   -0.4257   62.2118 C.2     1  ZINC000676204775    0.0500
     24 C24       -13.5808   -1.4990   57.8505 C.ar    1  ZINC000676204775    0.0100
     25 C25       -13.1445   -1.8148   56.5948 C.ar    1  ZINC000676204775   -0.1500
     26 C26       -13.4075   -3.0760   56.0665 C.ar    1  ZINC000676204775    0.1700
     27 H27       -10.6590   -4.3423   54.0257 H       1  ZINC000676204775    0.0600
     28 H28       -11.8646   -4.9669   52.8747 H       1  ZINC000676204775    0.0700
     29 H29       -10.8007   -3.6193   52.4054 H       1  ZINC000676204775    0.0800
     30 H30       -11.8684   -2.1796   54.1188 H       1  ZINC000676204775    0.1000
     31 H31       -13.8661   -3.5898   52.2918 H       1  ZINC000676204775    0.0700
     32 H32       -14.0865   -1.9841   53.0275 H       1  ZINC000676204775    0.0600
     33 H33       -12.8021   -2.2421   51.8225 H       1  ZINC000676204775    0.0800
     34 H34       -14.7427   -6.1289   56.2944 H       1  ZINC000676204775    0.2000
     35 H35       -15.1216   -4.3728   58.7121 H       1  ZINC000676204775    0.1500
     36 H36       -13.5161   -2.6499   61.9843 H       1  ZINC000676204775    0.4200
     37 H37       -11.0311   -2.8575   61.2953 H       1  ZINC000676204775    0.0800
     38 H38       -11.3335   -2.4918   59.5808 H       1  ZINC000676204775    0.0800
     39 H39        -9.0894   -1.7594   60.0459 H       1  ZINC000676204775    0.0700
     40 H40       -10.0887   -0.2902   59.9570 H       1  ZINC000676204775    0.0700
     41 H41        -9.1197   -1.7168   62.4757 H       1  ZINC000676204775    0.0700
     42 H42        -8.6813   -0.0798   61.9213 H       1  ZINC000676204775    0.0700
     43 H43        -9.8620    0.7523   64.3966 H       1  ZINC000676204775    0.1800
     44 H44       -12.3374    1.2579   64.8175 H       1  ZINC000676204775    0.4400
     45 H45       -13.3712   -0.5209   58.2577 H       1  ZINC000676204775    0.1500
     46 H46       -12.5932   -1.0893   56.0151 H       1  ZINC000676204775    0.1300
@<TRIPOS>BOND
     1     1     2    1
     2     1    27    1
     3     1    28    1
     4     1    29    1
     5     2     3    1
     6     2     4    1
     7     2    30    1
     8     3    31    1
     9     3    32    1
    10     3    33    1
    11     4    26    1
    12     4     5    1
    13     5     6    2
    14     6     7    1
    15     6    34    1
    16     7    26   ar
    17     7     8   ar
    18     8     9   ar
    19     8    35    1
    20     9    10    1
    21     9    24   ar
    22    10    11    2
    23    10    12    2
    24    10    13   am
    25    13    14    1
    26    13    36    1
    27    14    15    1
    28    14    23    1
    29    14    16    1
    30    16    17    1
    31    16    37    1
    32    16    38    1
    33    17    18    1
    34    17    39    1
    35    17    40    1
    36    18    19    1
    37    18    41    1
    38    18    42    1
    39    19    23    1
    40    19    20    2
    41    20    21    1
    42    20    43    1
    43    21    22    1
    44    21    44    1
    45    22    23    2
    46    24    25   ar
    47    24    45    1
    48    25    26   ar
    49    25    46    1
@<TRIPOS>SUBSTRUCTURE
     1 ZINC000676204775        1 TEMP              0 ****  ****    0 ROOT


##########                                Name:    ZINC001119787528
##########                DOCK_Rotatable_Bonds:                   6
##########                         Heavy_Atoms:                  27
##########                    Molecular_Weight:             362.434
##########                DOCK_Rotatable_Bonds:                   6
##########                       Formal_Charge:          -0.0199998
##########                     HBond_Acceptors:                   7
##########                        HBond_Donors:                   1
##########                         Heavy_Atoms:                  27
##########                          Grid_Score:          -34.271610
##########                     Grid_vdw_energy:          -32.195358
##########                      Grid_es_energy:           -2.076252
##########           Internal_energy_repulsive:           10.495984

@<TRIPOS>MOLECULE
ZINC001119787528
 49 52 1 0 0
SMALL
USER_CHARGES


@<TRIPOS>ATOM
      1 C1         -8.4619    0.0960   64.7332 C.3     1  ZINC001119787528   -0.1700
      2 C2         -8.8542    0.8008   63.4331 C.3     1  ZINC001119787528    0.1000
      3 N3        -10.1568    0.3042   62.9823 N.pl3   1  ZINC001119787528   -0.4500
      4 C4        -11.3659    0.6509   63.4805 C.2     1  ZINC001119787528    0.1800
      5 N5        -12.2927    0.0009   62.8259 N.2     1  ZINC001119787528   -0.4800
      6 C6        -11.7154   -0.7707   61.9023 C.2     1  ZINC001119787528   -0.0200
      7 C7        -10.3794   -0.5895   61.9787 C.2     1  ZINC001119787528   -0.0100
      8 C8         -9.3665   -1.2734   61.0985 C.3     1  ZINC001119787528   -0.0600
      9 C9        -10.0244   -2.4956   60.4449 C.3     1  ZINC001119787528    0.1400
     10 N10       -11.3539   -2.1161   59.9439 N.am    1  ZINC001119787528   -0.6200
     11 C11       -11.6279   -2.1433   58.6246 C.2     1  ZINC001119787528    0.7200
     12 O12       -12.7320   -1.8262   58.2265 O.2     1  ZINC001119787528   -0.5600
     13 N13       -10.6779   -2.5216   57.7466 N.am    1  ZINC001119787528   -0.6600
     14 C14       -10.9606   -2.5497   56.3859 C.ar    1  ZINC001119787528    0.4200
     15 C15       -11.3352   -3.7412   55.7644 C.ar    1  ZINC001119787528   -0.2500
     16 C16       -11.6064   -3.7173   54.4095 C.ar    1  ZINC001119787528    0.1600
     17 N17       -11.5028   -2.5729   53.7498 N.ar    1  ZINC001119787528   -0.5300
     18 C18       -11.1464   -1.4639   54.3665 C.ar    1  ZINC001119787528    0.3500
     19 C19       -11.0425   -0.1861   53.5743 C.3     1  ZINC001119787528   -0.0100
     20 C20        -9.6477   -0.0509   53.0199 C.ar    1  ZINC001119787528   -0.0800
     21 C21        -9.0512   -1.1218   52.3808 C.ar    1  ZINC001119787528   -0.1000
     22 C22        -7.7718   -0.9979   51.8722 C.ar    1  ZINC001119787528   -0.1200
     23 C23        -7.0890    0.1970   52.0024 C.ar    1  ZINC001119787528   -0.1200
     24 C24        -7.6859    1.2681   52.6408 C.ar    1  ZINC001119787528   -0.1200
     25 C25        -8.9669    1.1455   53.1455 C.ar    1  ZINC001119787528   -0.1000
     26 N26       -10.8837   -1.4405   55.6572 N.ar    1  ZINC001119787528   -0.5500
     27 C27       -12.3801   -1.7019   60.9163 C.3     1  ZINC001119787528    0.2000
     28 H28        -7.4928    0.4654   65.0686 H       1  ZINC001119787528    0.0800
     29 H29        -9.2124    0.2988   65.4973 H       1  ZINC001119787528    0.0600
     30 H30        -8.4010   -0.9784   64.5599 H       1  ZINC001119787528    0.0600
     31 H31        -8.9152    1.8752   63.6063 H       1  ZINC001119787528    0.0900
     32 H32        -8.1037    0.5978   62.6691 H       1  ZINC001119787528    0.1000
     33 H33       -11.5375    1.3493   64.2863 H       1  ZINC001119787528    0.2100
     34 H34        -9.0289   -0.5831   60.3255 H       1  ZINC001119787528    0.0800
     35 H35        -8.5168   -1.5945   61.7009 H       1  ZINC001119787528    0.0900
     36 H36        -9.4076   -2.8415   59.6155 H       1  ZINC001119787528    0.1100
     37 H37       -10.1265   -3.2922   61.1817 H       1  ZINC001119787528    0.0800
     38 H38        -9.7971   -2.7745   58.0643 H       1  ZINC001119787528    0.4200
     39 H39       -11.4109   -4.6594   56.3280 H       1  ZINC001119787528    0.1800
     40 H40       -11.8990   -4.6205   53.8946 H       1  ZINC001119787528    0.1700
     41 H41       -11.7592   -0.2083   52.7534 H       1  ZINC001119787528    0.1000
     42 H42       -11.2594    0.6623   54.2232 H       1  ZINC001119787528    0.1000
     43 H43        -9.5847   -2.0554   52.2792 H       1  ZINC001119787528    0.1300
     44 H44        -7.3055   -1.8347   51.3736 H       1  ZINC001119787528    0.1200
     45 H45        -6.0892    0.2936   51.6058 H       1  ZINC001119787528    0.1200
     46 H46        -7.1522    2.2015   52.7428 H       1  ZINC001119787528    0.1200
     47 H47        -9.4331    1.9823   53.6442 H       1  ZINC001119787528    0.1200
     48 H48       -12.7671   -2.5750   61.4417 H       1  ZINC001119787528    0.0900
     49 H49       -13.1918   -1.1872   60.4024 H       1  ZINC001119787528    0.0900
@<TRIPOS>BOND
     1     1     2    1
     2     1    28    1
     3     1    29    1
     4     1    30    1
     5     2     3    1
     6     2    31    1
     7     2    32    1
     8     3     7    1
     9     3     4    1
    10     4     5    2
    11     4    33    1
    12     5     6    1
    13     6    27    1
    14     6     7    2
    15     7     8    1
    16     8     9    1
    17     8    34    1
    18     8    35    1
    19     9    10    1
    20     9    36    1
    21     9    37    1
    22    10    11   am
    23    10    27    1
    24    11    12    2
    25    11    13   am
    26    13    14    1
    27    13    38    1
    28    14    26   ar
    29    14    15   ar
    30    15    16   ar
    31    15    39    1
    32    16    17   ar
    33    16    40    1
    34    17    18   ar
    35    18    19    1
    36    18    26   ar
    37    19    20    1
    38    19    41    1
    39    19    42    1
    40    20    25   ar
    41    20    21   ar
    42    21    22   ar
    43    21    43    1
    44    22    23   ar
    45    22    44    1
    46    23    24   ar
    47    23    45    1
    48    24    25   ar
    49    24    46    1
    50    25    47    1
    51    27    48    1
    52    27    49    1
@<TRIPOS>SUBSTRUCTURE
     1 ZINC001119787528        1 TEMP              0 ****  ****    0 ROOT


##########                                Name:    ZINC000643274279
##########                DOCK_Rotatable_Bonds:                   6
##########                         Heavy_Atoms:                  29
##########                    Molecular_Weight:             392.454
##########                DOCK_Rotatable_Bonds:                   6
##########                       Formal_Charge:         -0.00999939
##########                     HBond_Acceptors:                   6
##########                        HBond_Donors:                   2
##########                         Heavy_Atoms:                  29
##########                          Grid_Score:          -34.268314
##########                     Grid_vdw_energy:          -32.104836
##########                      Grid_es_energy:           -2.163479
##########           Internal_energy_repulsive:           13.003430

@<TRIPOS>MOLECULE
ZINC000643274279
 53 56 1 0 0
SMALL
USER_CHARGES


@<TRIPOS>ATOM
      1 O1        -12.8019    0.2996   59.3627 O.2     1  ZINC000643274279   -0.4900
      2 C2        -12.7404   -0.0966   60.5084 C.2     1  ZINC000643274279    0.5100
      3 N3        -12.9203   -1.4043   60.7799 N.am    1  ZINC000643274279   -0.6400
      4 C4        -13.1836   -2.3035   59.7428 C.ar    1  ZINC000643274279    0.1300
      5 C5        -14.3436   -3.0698   59.7668 C.ar    1  ZINC000643274279   -0.1000
      6 C6        -14.6072   -3.9714   58.7501 C.ar    1  ZINC000643274279   -0.1000
      7 C7        -13.7153   -4.1121   57.7099 C.ar    1  ZINC000643274279   -0.0600
      8 C8        -13.9658   -5.1497   56.6295 C.3     1  ZINC000643274279   -0.0900
      9 C9        -14.2611   -4.4421   55.3120 C.3     1  ZINC000643274279   -0.1200
     10 C10       -12.9832   -4.1337   54.5464 C.3     1  ZINC000643274279   -0.1100
     11 C11       -12.1477   -3.0368   55.1567 C.3     1  ZINC000643274279   -0.1600
     12 C12       -11.6395   -3.4654   56.5195 C.2     1  ZINC000643274279    0.4100
     13 O13       -10.5172   -3.9011   56.6637 O.2     1  ZINC000643274279   -0.4400
     14 C14       -12.5601   -3.3322   57.6620 C.ar    1  ZINC000643274279   -0.1300
     15 C15       -12.2900   -2.4252   58.6886 C.ar    1  ZINC000643274279   -0.1000
     16 C16       -12.4590    0.8644   61.6166 C.2     1  ZINC000643274279    0.5200
     17 O17       -13.2881    1.6954   61.9243 O.2     1  ZINC000643274279   -0.5000
     18 N18       -11.2843    0.8086   62.2749 N.am    1  ZINC000643274279   -0.5800
     19 C19       -10.8776    1.6917   63.3832 C.3     1  ZINC000643274279    0.0900
     20 C20        -9.8172    0.8799   64.1683 C.3     1  ZINC000643274279   -0.1400
     21 C21        -9.0702    0.1509   63.0204 C.3     1  ZINC000643274279   -0.1200
     22 C22       -10.1987   -0.1471   62.0109 C.3     1  ZINC000643274279    0.1800
     23 H23       -10.5562   -1.1681   62.1452 H       1  ZINC000643274279    0.0900
     24 C24        -9.6899    0.0366   60.6044 C.ar    1  ZINC000643274279   -0.1000
     25 C25        -9.3312   -1.0656   59.8507 C.ar    1  ZINC000643274279   -0.0900
     26 C26        -8.8646   -0.8998   58.5610 C.ar    1  ZINC000643274279   -0.1400
     27 C27        -8.7564    0.3740   58.0222 C.ar    1  ZINC000643274279    0.1100
     28 O28        -8.2981    0.5396   56.7536 O.3     1  ZINC000643274279   -0.5000
     29 C29        -9.1174    1.4783   58.7803 C.ar    1  ZINC000643274279   -0.1400
     30 C30        -9.5881    1.3069   60.0677 C.ar    1  ZINC000643274279   -0.0900
     31 H31       -12.8672   -1.7215   61.6950 H       1  ZINC000643274279    0.4200
     32 H32       -15.0424   -2.9613   60.5831 H       1  ZINC000643274279    0.1400
     33 H33       -15.5100   -4.5636   58.7726 H       1  ZINC000643274279    0.1400
     34 H34       -13.0818   -5.7771   56.5155 H       1  ZINC000643274279    0.0800
     35 H35       -14.8184   -5.7683   56.9096 H       1  ZINC000643274279    0.0800
     36 H36       -14.8980   -5.0805   54.6997 H       1  ZINC000643274279    0.0800
     37 H37       -14.7866   -3.5096   55.5184 H       1  ZINC000643274279    0.0700
     38 H38       -12.3812   -5.0411   54.4968 H       1  ZINC000643274279    0.0700
     39 H39       -13.2494   -3.8423   53.5303 H       1  ZINC000643274279    0.0800
     40 H40       -11.3001   -2.8233   54.5055 H       1  ZINC000643274279    0.0900
     41 H41       -12.7544   -2.1375   55.2635 H       1  ZINC000643274279    0.0900
     42 H42       -11.3914   -1.8267   58.6643 H       1  ZINC000643274279    0.1300
     43 H43       -10.4401    2.6112   62.9946 H       1  ZINC000643274279    0.0800
     44 H44       -11.7318    1.9171   64.0216 H       1  ZINC000643274279    0.1000
     45 H45        -9.1444    1.5412   64.7143 H       1  ZINC000643274279    0.0900
     46 H46       -10.2916    0.1656   64.8413 H       1  ZINC000643274279    0.0800
     47 H47        -8.3143    0.8002   62.5787 H       1  ZINC000643274279    0.0800
     48 H48        -8.6222   -0.7758   63.3791 H       1  ZINC000643274279    0.0900
     49 H49        -9.4156   -2.0570   60.2706 H       1  ZINC000643274279    0.1200
     50 H50        -8.5838   -1.7611   57.9730 H       1  ZINC000643274279    0.1300
     51 H51        -8.2826    1.4602   56.4580 H       1  ZINC000643274279    0.3900
     52 H52        -9.0338    2.4710   58.3631 H       1  ZINC000643274279    0.1300
     53 H53        -9.8696    2.1662   60.6582 H       1  ZINC000643274279    0.1300
@<TRIPOS>BOND
     1     1     2    2
     2     2     3   am
     3     2    16    1
     4     3     4    1
     5     3    31    1
     6     4    15   ar
     7     4     5   ar
     8     5     6   ar
     9     5    32    1
    10     6     7   ar
    11     6    33    1
    12     7    14   ar
    13     7     8    1
    14     8     9    1
    15     8    34    1
    16     8    35    1
    17     9    10    1
    18     9    36    1
    19     9    37    1
    20    10    11    1
    21    10    38    1
    22    10    39    1
    23    11    12    1
    24    11    40    1
    25    11    41    1
    26    12    13    2
    27    12    14    1
    28    14    15   ar
    29    15    42    1
    30    16    17    2
    31    16    18   am
    32    18    22    1
    33    18    19    1
    34    19    20    1
    35    19    43    1
    36    19    44    1
    37    20    21    1
    38    20    45    1
    39    20    46    1
    40    21    22    1
    41    21    47    1
    42    21    48    1
    43    22    23    1
    44    22    24    1
    45    24    30   ar
    46    24    25   ar
    47    25    26   ar
    48    25    49    1
    49    26    27   ar
    50    26    50    1
    51    27    28    1
    52    27    29   ar
    53    28    51    1
    54    29    30   ar
    55    29    52    1
    56    30    53    1
@<TRIPOS>SUBSTRUCTURE
     1 ZINC000643274279        1 TEMP              0 ****  ****    0 ROOT


##########                                Name:    ZINC000471198073
##########                DOCK_Rotatable_Bonds:                  12
##########                         Heavy_Atoms:                  30
##########                    Molecular_Weight:             409.528
##########                DOCK_Rotatable_Bonds:                  12
##########                       Formal_Charge:          -0.0399998
##########                     HBond_Acceptors:                   6
##########                        HBond_Donors:                   3
##########                         Heavy_Atoms:                  30
##########                          Grid_Score:          -34.248051
##########                     Grid_vdw_energy:          -33.360935
##########                      Grid_es_energy:           -0.887117
##########           Internal_energy_repulsive:           19.830187

@<TRIPOS>MOLECULE
ZINC000471198073
 61 62 1 0 0
SMALL
USER_CHARGES


@<TRIPOS>ATOM
      1 C1         -9.5457    0.5405   63.1109 C.3     1  ZINC000471198073   -0.1400
      2 C2        -10.7813    0.6310   62.2131 C.3     1  ZINC000471198073   -0.1100
      3 C3        -10.7067    1.9054   61.3698 C.3     1  ZINC000471198073   -0.1500
      4 C4        -10.8312   -0.5702   61.3046 C.2     1  ZINC000471198073    0.5200
      5 O5        -11.7947   -1.3067   61.3253 O.2     1  ZINC000471198073   -0.5200
      6 N6         -9.8053   -0.8262   60.4689 N.am    1  ZINC000471198073   -0.6700
      7 C7         -9.8517   -1.9417   59.6253 C.ar    1  ZINC000471198073    0.1600
      8 C8         -9.0241   -3.0308   59.8667 C.ar    1  ZINC000471198073   -0.1500
      9 C9         -9.0693   -4.1331   59.0344 C.ar    1  ZINC000471198073   -0.0800
     10 C10        -9.9371   -4.1560   57.9601 C.ar    1  ZINC000471198073   -0.1300
     11 C11       -10.7676   -3.0691   57.7126 C.ar    1  ZINC000471198073    0.1500
     12 N12       -11.6450   -3.0925   56.6254 N.am    1  ZINC000471198073   -0.6400
     13 C13       -12.5770   -4.0616   56.5323 C.2     1  ZINC000471198073    0.5100
     14 O14       -12.6543   -4.9140   57.3929 O.2     1  ZINC000471198073   -0.5000
     15 C15       -13.5148   -4.0866   55.3702 C.2     1  ZINC000471198073    0.5100
     16 O16       -14.3021   -5.0017   55.2453 O.2     1  ZINC000471198073   -0.5100
     17 N17       -13.4866   -3.0929   54.4600 N.am    1  ZINC000471198073   -0.7000
     18 C18       -14.4053   -3.1182   53.3192 C.3     1  ZINC000471198073    0.1200
     19 C19       -14.6881   -1.6864   52.8601 C.3     1  ZINC000471198073   -0.0900
     20 H20       -14.5276   -0.9999   53.6915 H       1  ZINC000471198073    0.0800
     21 C21       -13.7460   -1.3239   51.7104 C.3     1  ZINC000471198073   -0.0800
     22 C22       -12.3900   -0.9700   52.2645 C.ar    1  ZINC000471198073   -0.0800
     23 C23       -12.2538    0.1026   53.1258 C.ar    1  ZINC000471198073   -0.1200
     24 C24       -11.0100    0.4273   53.6341 C.ar    1  ZINC000471198073   -0.1200
     25 C25        -9.9024   -0.3209   53.2814 C.ar    1  ZINC000471198073   -0.1200
     26 C26       -10.0388   -1.3941   52.4208 C.ar    1  ZINC000471198073   -0.1200
     27 C27       -11.2833   -1.7214   51.9159 C.ar    1  ZINC000471198073   -0.1200
     28 C28       -16.1382   -1.5805   52.3840 C.3     1  ZINC000471198073   -0.1000
     29 C29       -16.5352   -0.1064   52.2823 C.3     1  ZINC000471198073   -0.1600
     30 C30       -16.2737   -2.2411   51.0107 C.3     1  ZINC000471198073   -0.1700
     31 C31       -10.7284   -1.9631   58.5501 C.ar    1  ZINC000471198073   -0.1400
     32 H32        -9.5096    1.4094   63.7680 H       1  ZINC000471198073    0.0700
     33 H33        -9.5989   -0.3674   63.7118 H       1  ZINC000471198073    0.0600
     34 H34        -8.6484    0.5150   62.4926 H       1  ZINC000471198073    0.0600
     35 H35       -11.6785    0.6565   62.8314 H       1  ZINC000471198073    0.1000
     36 H36        -9.8094    1.8800   60.7515 H       1  ZINC000471198073    0.0600
     37 H37       -11.5869    1.9700   60.7302 H       1  ZINC000471198073    0.0600
     38 H38       -10.6706    2.7744   62.0270 H       1  ZINC000471198073    0.0700
     39 H39        -9.0347   -0.2374   60.4523 H       1  ZINC000471198073    0.4100
     40 H40        -8.3442   -3.0161   60.7057 H       1  ZINC000471198073    0.1300
     41 H41        -8.4246   -4.9785   59.2242 H       1  ZINC000471198073    0.1300
     42 H42        -9.9701   -5.0188   57.3115 H       1  ZINC000471198073    0.1400
     43 H43       -11.5832   -2.4113   55.9375 H       1  ZINC000471198073    0.4200
     44 H44       -12.8581   -2.3609   54.5605 H       1  ZINC000471198073    0.4200
     45 H45       -13.9534   -3.6794   52.5013 H       1  ZINC000471198073    0.0700
     46 H46       -15.3392   -3.5959   53.6152 H       1  ZINC000471198073    0.0800
     47 H47       -13.6520   -2.1749   51.0357 H       1  ZINC000471198073    0.0800
     48 H48       -14.1497   -0.4708   51.1651 H       1  ZINC000471198073    0.0800
     49 H49       -13.1191    0.6872   53.4014 H       1  ZINC000471198073    0.1200
     50 H50       -10.9035    1.2657   54.3065 H       1  ZINC000471198073    0.1200
     51 H51        -8.9306   -0.0669   53.6779 H       1  ZINC000471198073    0.1200
     52 H52        -9.1735   -1.9785   52.1450 H       1  ZINC000471198073    0.1200
     53 H53       -11.3899   -2.5598   51.2435 H       1  ZINC000471198073    0.1200
     54 H54       -16.7920   -2.0846   53.0958 H       1  ZINC000471198073    0.0800
     55 H55       -15.9479    0.3750   51.5004 H       1  ZINC000471198073    0.0600
     56 H56       -17.5950   -0.0316   52.0387 H       1  ZINC000471198073    0.0600
     57 H57       -16.3457    0.3876   53.2352 H       1  ZINC000471198073    0.0600
     58 H58       -15.8719   -3.2535   51.0532 H       1  ZINC000471198073    0.0600
     59 H59       -17.3257   -2.2793   50.7281 H       1  ZINC000471198073    0.0600
     60 H60       -15.7200   -1.6612   50.2724 H       1  ZINC000471198073    0.0700
     61 H61       -11.3726   -1.1173   58.3600 H       1  ZINC000471198073    0.1400
@<TRIPOS>BOND
     1     1     2    1
     2     1    32    1
     3     1    33    1
     4     1    34    1
     5     2     3    1
     6     2     4    1
     7     2    35    1
     8     3    36    1
     9     3    37    1
    10     3    38    1
    11     4     5    2
    12     4     6   am
    13     6     7    1
    14     6    39    1
    15     7    31   ar
    16     7     8   ar
    17     8     9   ar
    18     8    40    1
    19     9    10   ar
    20     9    41    1
    21    10    11   ar
    22    10    42    1
    23    11    12    1
    24    11    31   ar
    25    12    13   am
    26    12    43    1
    27    13    14    2
    28    13    15    1
    29    15    16    2
    30    15    17   am
    31    17    18    1
    32    17    44    1
    33    18    19    1
    34    18    45    1
    35    18    46    1
    36    19    20    1
    37    19    21    1
    38    19    28    1
    39    21    22    1
    40    21    47    1
    41    21    48    1
    42    22    27   ar
    43    22    23   ar
    44    23    24   ar
    45    23    49    1
    46    24    25   ar
    47    24    50    1
    48    25    26   ar
    49    25    51    1
    50    26    27   ar
    51    26    52    1
    52    27    53    1
    53    28    29    1
    54    28    30    1
    55    28    54    1
    56    29    55    1
    57    29    56    1
    58    29    57    1
    59    30    58    1
    60    30    59    1
    61    30    60    1
    62    31    61    1
@<TRIPOS>SUBSTRUCTURE
     1 ZINC000471198073        1 TEMP              0 ****  ****    0 ROOT


##########                                Name:    ZINC000562561773
##########                DOCK_Rotatable_Bonds:                   6
##########                         Heavy_Atoms:                  26
##########                    Molecular_Weight:             371.466
##########                DOCK_Rotatable_Bonds:                   6
##########                       Formal_Charge:           0.0199999
##########                     HBond_Acceptors:                   9
##########                        HBond_Donors:                   0
##########                         Heavy_Atoms:                  26
##########                          Grid_Score:          -34.237652
##########                     Grid_vdw_energy:          -32.365162
##########                      Grid_es_energy:           -1.872488
##########           Internal_energy_repulsive:            8.522866

@<TRIPOS>MOLECULE
ZINC000562561773
 47 50 1 0 0
SMALL
USER_CHARGES


@<TRIPOS>ATOM
      1 C1        -14.4984   -2.6739   52.9022 C.3     1  ZINC000562561773   -0.1100
      2 C2        -13.5462   -2.9780   54.0301 C.ar    1  ZINC000562561773   -0.0400
      3 C3        -13.6344   -4.1830   54.7004 C.ar    1  ZINC000562561773   -0.1200
      4 C4        -12.7649   -4.4676   55.7347 C.ar    1  ZINC000562561773   -0.0700
      5 C5        -11.7947   -3.5389   56.1057 C.ar    1  ZINC000562561773   -0.0300
      6 C6        -10.8591   -3.8438   57.2170 C.2     1  ZINC000562561773    0.2200
      7 N7        -10.2632   -4.9864   57.4385 N.2     1  ZINC000562561773   -0.3700
      8 O8         -9.5641   -4.9073   58.4264 O.3     1  ZINC000562561773    0.0900
      9 C9         -9.6448   -3.6788   58.9471 C.2     1  ZINC000562561773    0.1900
     10 C10        -8.9278   -3.1778   60.1743 C.3     1  ZINC000562561773   -0.0100
     11 C11        -9.7076   -2.0086   60.7789 C.3     1  ZINC000562561773   -0.1200
     12 S12        -8.7805   -1.3221   62.1737 S.3     1  ZINC000562561773    0.0600
     13 C13        -9.9793   -0.2020   62.8163 C.2     1  ZINC000562561773    0.2100
     14 N14       -11.1727    0.0366   62.3170 N.2     1  ZINC000562561773   -0.3300
     15 N15       -11.7921    0.9077   63.0288 N.2     1  ZINC000562561773   -0.0300
     16 N16       -11.0554    1.2842   64.0175 N.2     1  ZINC000562561773   -0.0700
     17 N17        -9.8478    0.5711   63.9201 N.pl3   1  ZINC000562561773   -0.3600
     18 C18        -8.6915    0.6533   64.8158 C.3     1  ZINC000562561773    0.0800
     19 N19       -10.4590   -2.9903   58.1865 N.2     1  ZINC000562561773   -0.4600
     20 C20       -11.7047   -2.3243   55.4312 C.ar    1  ZINC000562561773   -0.1100
     21 C21       -12.5779   -2.0479   54.3896 C.ar    1  ZINC000562561773    0.0800
     22 N22       -12.4913   -0.8308   53.7093 N.3     1  ZINC000562561773   -0.4800
     23 C23       -12.6098    0.3136   54.6488 C.3     1  ZINC000562561773    0.0400
     24 C24       -11.9822    1.4884   53.8573 C.3     1  ZINC000562561773   -0.1200
     25 C25       -10.8090    0.8141   53.1099 C.3     1  ZINC000562561773   -0.1300
     26 C26       -11.1728   -0.6813   53.0561 C.3     1  ZINC000562561773    0.0400
     27 H27       -14.0723   -3.0250   51.9624 H       1  ZINC000562561773    0.0700
     28 H28       -15.4475   -3.1789   53.0819 H       1  ZINC000562561773    0.0600
     29 H29       -14.6640   -1.5980   52.8466 H       1  ZINC000562561773    0.0800
     30 H30       -14.3859   -4.9042   54.4147 H       1  ZINC000562561773    0.1400
     31 H31       -12.8372   -5.4105   56.2565 H       1  ZINC000562561773    0.1400
     32 H32        -8.8540   -3.9825   60.9059 H       1  ZINC000562561773    0.1200
     33 H33        -7.9272   -2.8439   59.8995 H       1  ZINC000562561773    0.1300
     34 H34        -9.8502   -1.2370   60.0225 H       1  ZINC000562561773    0.1100
     35 H35       -10.6789   -2.3606   61.1264 H       1  ZINC000562561773    0.1100
     36 H36        -8.8010   -0.0759   65.6185 H       1  ZINC000562561773    0.1000
     37 H37        -7.7813    0.4418   64.2545 H       1  ZINC000562561773    0.1000
     38 H38        -8.6317    1.6553   65.2408 H       1  ZINC000562561773    0.1100
     39 H39       -10.9545   -1.6012   55.7154 H       1  ZINC000562561773    0.1300
     40 H40       -13.6561    0.5181   54.8758 H       1  ZINC000562561773    0.0900
     41 H41       -12.0472    0.1213   55.5624 H       1  ZINC000562561773    0.0500
     42 H42       -12.7005    1.9053   53.1514 H       1  ZINC000562561773    0.0800
     43 H43       -11.6155    2.2585   54.5360 H       1  ZINC000562561773    0.0700
     44 H44       -10.7204    1.2184   52.1015 H       1  ZINC000562561773    0.0800
     45 H45        -9.8783    0.9575   53.6589 H       1  ZINC000562561773    0.0700
     46 H46       -10.4245   -1.2650   53.5923 H       1  ZINC000562561773    0.0500
     47 H47       -11.2325   -1.0120   52.0192 H       1  ZINC000562561773    0.0800
@<TRIPOS>BOND
     1     1     2    1
     2     1    27    1
     3     1    28    1
     4     1    29    1
     5     2    21   ar
     6     2     3   ar
     7     3     4   ar
     8     3    30    1
     9     4     5   ar
    10     4    31    1
    11     5     6    1
    12     5    20   ar
    13     6    19    1
    14     6     7    2
    15     7     8    1
    16     8     9    1
    17     9    10    1
    18     9    19    2
    19    10    11    1
    20    10    32    1
    21    10    33    1
    22    11    12    1
    23    11    34    1
    24    11    35    1
    25    12    13    1
    26    13    17    1
    27    13    14    2
    28    14    15    1
    29    15    16    2
    30    16    17    1
    31    17    18    1
    32    18    36    1
    33    18    37    1
    34    18    38    1
    35    20    21   ar
    36    20    39    1
    37    21    22    1
    38    22    26    1
    39    22    23    1
    40    23    24    1
    41    23    40    1
    42    23    41    1
    43    24    25    1
    44    24    42    1
    45    24    43    1
    46    25    26    1
    47    25    44    1
    48    25    45    1
    49    26    46    1
    50    26    47    1
@<TRIPOS>SUBSTRUCTURE
     1 ZINC000562561773        1 TEMP              0 ****  ****    0 ROOT


##########                                Name:    ZINC000848949366
##########                DOCK_Rotatable_Bonds:                   8
##########                         Heavy_Atoms:                  25
##########                    Molecular_Weight:             368.773
##########                DOCK_Rotatable_Bonds:                   8
##########                       Formal_Charge:          0.00999947
##########                     HBond_Acceptors:                   9
##########                        HBond_Donors:                   3
##########                         Heavy_Atoms:                  25
##########                          Grid_Score:          -34.235615
##########                     Grid_vdw_energy:          -32.174553
##########                      Grid_es_energy:           -2.061062
##########           Internal_energy_repulsive:           14.040897

@<TRIPOS>MOLECULE
ZINC000848949366
 42 43 1 0 0
SMALL
USER_CHARGES


@<TRIPOS>ATOM
      1 C1        -10.9091   -2.7879   53.0200 C.3     1  ZINC000848949366   -0.1500
      2 C2        -10.8582   -3.6652   54.2726 C.3     1  ZINC000848949366    0.0600
      3 O3        -11.7905   -3.1728   55.2371 O.3     1  ZINC000848949366   -0.3500
      4 C4        -11.7587   -3.7360   56.4630 C.2     1  ZINC000848949366    0.5400
      5 O5        -10.8005   -4.4059   56.8001 O.2     1  ZINC000848949366   -0.4800
      6 C6        -12.8393   -3.5476   57.3562 C.2     1  ZINC000848949366   -0.2300
      7 C7        -12.6719   -2.8948   58.5265 C.2     1  ZINC000848949366    0.2000
      8 C8        -11.3111   -2.3574   58.8876 C.3     1  ZINC000848949366    0.1000
      9 O9        -11.4044   -1.5889   60.1160 O.3     1  ZINC000848949366   -0.3500
     10 C10       -10.2467   -1.1793   60.6708 C.2     1  ZINC000848949366    0.5100
     11 O11        -9.1956   -1.3636   60.0895 O.2     1  ZINC000848949366   -0.4800
     12 C12       -10.2553   -0.5079   61.9823 C.ar    1  ZINC000848949366   -0.1600
     13 C13        -9.0566   -0.2852   62.6657 C.ar    1  ZINC000848949366   -0.0300
     14 C14        -9.0711    0.3430   63.8915 C.ar    1  ZINC000848949366   -0.1300
     15 C15       -10.2705    0.7558   64.4518 C.ar    1  ZINC000848949366    0.0200
     16 Cl16      -10.2742    1.5459   65.9976 Cl      1  ZINC000848949366   -0.0500
     17 C17       -11.4632    0.5422   63.7862 C.ar    1  ZINC000848949366   -0.1500
     18 C18       -11.4661   -0.0833   62.5493 C.ar    1  ZINC000848949366    0.1900
     19 O19       -12.6354   -0.2937   61.8951 O.3     1  ZINC000848949366   -0.4700
     20 N20       -13.7160   -2.7131   59.3878 N.am    1  ZINC000848949366   -0.6400
     21 C21       -14.9581   -3.1543   59.1523 C.2     1  ZINC000848949366    0.7100
     22 O22       -15.8233   -2.9443   59.9800 O.2     1  ZINC000848949366   -0.5600
     23 N23       -15.2805   -3.8232   58.0276 N.am    1  ZINC000848949366   -0.7100
     24 C24       -14.2251   -4.0659   57.0297 C.3     1  ZINC000848949366    0.2000
     25 H25       -14.5447   -3.6205   56.0876 H       1  ZINC000848949366    0.0900
     26 C26       -14.1144   -5.5772   56.8184 C.3     1  ZINC000848949366   -0.1700
     27 H27       -10.1979   -3.1635   52.2843 H       1  ZINC000848949366    0.0800
     28 H28       -11.9144   -2.8130   52.5995 H       1  ZINC000848949366    0.0700
     29 H29       -10.6511   -1.7624   53.2841 H       1  ZINC000848949366    0.0700
     30 H30       -11.1162   -4.6908   54.0085 H       1  ZINC000848949366    0.0700
     31 H31        -9.8529   -3.6401   54.6931 H       1  ZINC000848949366    0.0700
     32 H32       -10.6188   -3.1873   59.0299 H       1  ZINC000848949366    0.1100
     33 H33       -10.9489   -1.7159   58.0843 H       1  ZINC000848949366    0.1000
     34 H34        -8.1202   -0.6057   62.2334 H       1  ZINC000848949366    0.1500
     35 H35        -8.1442    0.5144   64.4186 H       1  ZINC000848949366    0.1500
     36 H36       -12.3935    0.8664   64.2288 H       1  ZINC000848949366    0.1500
     37 H37       -12.5313   -0.7017   61.0245 H       1  ZINC000848949366    0.4000
     38 H38       -13.5484   -2.2380   60.2166 H       1  ZINC000848949366    0.4300
     39 H39       -16.1869   -4.1343   57.8775 H       1  ZINC000848949366    0.4400
     40 H40       -15.0680   -5.9649   56.4602 H       1  ZINC000848949366    0.0700
     41 H41       -13.3379   -5.7851   56.0821 H       1  ZINC000848949366    0.0700
     42 H42       -13.8581   -6.0582   57.7624 H       1  ZINC000848949366    0.0700
@<TRIPOS>BOND
     1     1     2    1
     2     1    27    1
     3     1    28    1
     4     1    29    1
     5     2     3    1
     6     2    30    1
     7     2    31    1
     8     3     4    1
     9     4     5    2
    10     4     6    1
    11     6    24    1
    12     6     7    2
    13     7     8    1
    14     7    20    1
    15     8     9    1
    16     8    32    1
    17     8    33    1
    18     9    10    1
    19    10    11    2
    20    10    12    1
    21    12    18   ar
    22    12    13   ar
    23    13    14   ar
    24    13    34    1
    25    14    15   ar
    26    14    35    1
    27    15    16    1
    28    15    17   ar
    29    17    18   ar
    30    17    36    1
    31    18    19    1
    32    19    37    1
    33    20    21   am
    34    20    38    1
    35    21    22    2
    36    21    23   am
    37    23    24    1
    38    23    39    1
    39    24    25    1
    40    24    26    1
    41    26    40    1
    42    26    41    1
    43    26    42    1
@<TRIPOS>SUBSTRUCTURE
     1 ZINC000848949366        1 TEMP              0 ****  ****    0 ROOT


##########                                Name:    ZINC000032503012
##########                DOCK_Rotatable_Bonds:                   8
##########                         Heavy_Atoms:                  27
##########                    Molecular_Weight:             390.503
##########                DOCK_Rotatable_Bonds:                   8
##########                       Formal_Charge:           0.0099995
##########                     HBond_Acceptors:                   7
##########                        HBond_Donors:                   2
##########                         Heavy_Atoms:                  27
##########                          Grid_Score:          -34.229019
##########                     Grid_vdw_energy:          -31.788574
##########                      Grid_es_energy:           -2.440445
##########           Internal_energy_repulsive:           40.001678

@<TRIPOS>MOLECULE
ZINC000032503012
 53 54 1 0 0
SMALL
USER_CHARGES


@<TRIPOS>ATOM
      1 C1        -13.1748    0.1724   53.9890 C.3     1  ZINC000032503012   -0.1200
      2 C2        -12.8185   -1.2485   53.6353 C.ar    1  ZINC000032503012   -0.0500
      3 C3        -12.2175   -1.5282   52.4221 C.ar    1  ZINC000032503012   -0.1600
      4 C4        -11.8893   -2.8311   52.0946 C.ar    1  ZINC000032503012   -0.0700
      5 C5        -12.1614   -3.8563   52.9793 C.ar    1  ZINC000032503012   -0.1500
      6 C6        -12.7646   -3.5781   54.1974 C.ar    1  ZINC000032503012    0.1300
      7 O7        -13.0330   -4.5851   55.0698 O.3     1  ZINC000032503012   -0.2800
      8 C8        -13.6805   -4.2287   56.2927 C.3     1  ZINC000032503012    0.0700
      9 H9        -14.5081   -3.5514   56.0817 H       1  ZINC000032503012    0.1100
     10 C10       -14.2148   -5.4903   56.9736 C.3     1  ZINC000032503012   -0.1800
     11 C11       -12.6928   -3.5463   57.2037 C.2     1  ZINC000032503012    0.5200
     12 O12       -13.0881   -2.8896   58.1436 O.2     1  ZINC000032503012   -0.4900
     13 N13       -11.3701   -3.6658   56.9740 N.am    1  ZINC000032503012   -0.6700
     14 C14       -10.4530   -3.0323   57.8198 C.ar    1  ZINC000032503012    0.1300
     15 C15        -9.6308   -3.7879   58.6451 C.ar    1  ZINC000032503012   -0.0600
     16 C16        -8.7265   -3.1596   59.4790 C.ar    1  ZINC000032503012   -0.1200
     17 C17        -8.6397   -1.7797   59.4929 C.ar    1  ZINC000032503012   -0.0300
     18 C18        -9.4575   -1.0242   58.6723 C.ar    1  ZINC000032503012   -0.6600
     19 S19        -9.3430    0.7339   58.6937 S.o2    1  ZINC000032503012    2.7000
     20 O20        -7.9873    1.0513   58.4095 O.2     1  ZINC000032503012   -0.9600
     21 O21       -10.4328    1.2164   57.9198 O.2     1  ZINC000032503012   -0.9500
     22 N22        -9.6217    1.2244   60.2506 N.am    1  ZINC000032503012   -1.1100
     23 C23       -10.8961    0.9095   60.9009 C.3     1  ZINC000032503012    0.1700
     24 C24       -10.9300   -0.5764   61.2640 C.3     1  ZINC000032503012   -0.1900
     25 C25       -11.0413    1.7487   62.1719 C.3     1  ZINC000032503012   -0.1500
     26 C26       -12.0482    1.2274   59.9455 C.3     1  ZINC000032503012   -0.1800
     27 C27       -10.3591   -1.6466   57.8315 C.ar    1  ZINC000032503012   -0.0400
     28 C28       -13.0876   -2.2698   54.5261 C.ar    1  ZINC000032503012   -0.2100
     29 H29       -12.3338    0.6416   54.4995 H       1  ZINC000032503012    0.0700
     30 H30       -13.4027    0.7272   53.0788 H       1  ZINC000032503012    0.0700
     31 H31       -14.0456    0.1761   54.6445 H       1  ZINC000032503012    0.0700
     32 H32       -12.0043   -0.7281   51.7289 H       1  ZINC000032503012    0.1300
     33 H33       -11.4202   -3.0472   51.1461 H       1  ZINC000032503012    0.1300
     34 H34       -11.9053   -4.8737   52.7229 H       1  ZINC000032503012    0.1300
     35 H35       -14.9293   -5.9838   56.3146 H       1  ZINC000032503012    0.0800
     36 H36       -13.3873   -6.1675   57.1845 H       1  ZINC000032503012    0.0800
     37 H37       -14.7088   -5.2184   57.9063 H       1  ZINC000032503012    0.0800
     38 H38       -11.0538   -4.1910   56.2222 H       1  ZINC000032503012    0.4100
     39 H39        -9.6986   -4.8657   58.6354 H       1  ZINC000032503012    0.1400
     40 H40        -8.0867   -3.7467   60.1212 H       1  ZINC000032503012    0.1400
     41 H41        -7.9320   -1.2909   60.1460 H       1  ZINC000032503012    0.1500
     42 H42        -8.9410    1.7201   60.7321 H       1  ZINC000032503012    0.4200
     43 H43       -10.0161   -0.8413   61.7956 H       1  ZINC000032503012    0.0700
     44 H44       -11.7917   -0.7751   61.9013 H       1  ZINC000032503012    0.0800
     45 H45       -11.0063   -1.1712   60.3538 H       1  ZINC000032503012    0.0700
     46 H46       -11.0172    2.8072   61.9132 H       1  ZINC000032503012    0.0700
     47 H47       -11.9895    1.5144   62.6556 H       1  ZINC000032503012    0.0700
     48 H48       -10.2205    1.5221   62.8524 H       1  ZINC000032503012    0.0600
     49 H49       -12.0606    0.4978   59.1357 H       1  ZINC000032503012    0.0900
     50 H50       -12.9926    1.1840   60.4881 H       1  ZINC000032503012    0.0700
     51 H51       -11.9123    2.2267   59.5322 H       1  ZINC000032503012    0.0600
     52 H52       -10.9974   -1.0561   57.1911 H       1  ZINC000032503012    0.1400
     53 H53       -13.5572   -2.0507   55.4737 H       1  ZINC000032503012    0.1300
@<TRIPOS>BOND
     1     1     2    1
     2     1    29    1
     3     1    30    1
     4     1    31    1
     5     2    28   ar
     6     2     3   ar
     7     3     4   ar
     8     3    32    1
     9     4     5   ar
    10     4    33    1
    11     5     6   ar
    12     5    34    1
    13     6     7    1
    14     6    28   ar
    15     7     8    1
    16     8     9    1
    17     8    10    1
    18     8    11    1
    19    10    35    1
    20    10    36    1
    21    10    37    1
    22    11    12    2
    23    11    13   am
    24    13    14    1
    25    13    38    1
    26    14    27   ar
    27    14    15   ar
    28    15    16   ar
    29    15    39    1
    30    16    17   ar
    31    16    40    1
    32    17    18   ar
    33    17    41    1
    34    18    19    1
    35    18    27   ar
    36    19    20    2
    37    19    21    2
    38    19    22   am
    39    22    23    1
    40    22    42    1
    41    23    24    1
    42    23    25    1
    43    23    26    1
    44    24    43    1
    45    24    44    1
    46    24    45    1
    47    25    46    1
    48    25    47    1
    49    25    48    1
    50    26    49    1
    51    26    50    1
    52    26    51    1
    53    27    52    1
    54    28    53    1
@<TRIPOS>SUBSTRUCTURE
     1 ZINC000032503012        1 TEMP              0 ****  ****    0 ROOT


##########                                Name:    ZINC000458730620
##########                DOCK_Rotatable_Bonds:                   9
##########                         Heavy_Atoms:                  25
##########                    Molecular_Weight:              375.44
##########                DOCK_Rotatable_Bonds:                   9
##########                       Formal_Charge:        -1.86265e-07
##########                     HBond_Acceptors:                   9
##########                        HBond_Donors:                   3
##########                         Heavy_Atoms:                  25
##########                          Grid_Score:          -34.226139
##########                     Grid_vdw_energy:          -33.114246
##########                      Grid_es_energy:           -1.111893
##########           Internal_energy_repulsive:           74.530594

@<TRIPOS>MOLECULE
ZINC000458730620
 48 49 1 0 0
SMALL
USER_CHARGES


@<TRIPOS>ATOM
      1 C1        -11.2437   -2.7571   52.2971 C.3     1  ZINC000458730620   -0.1600
      2 C2        -11.8568   -2.8636   53.6948 C.3     1  ZINC000458730620    0.2000
      3 C3        -12.9912   -3.8901   53.6773 C.3     1  ZINC000458730620   -0.1600
      4 N4        -10.8286   -3.2883   54.6481 N.am    1  ZINC000458730620   -0.7400
      5 C5        -11.1666   -3.5738   55.9212 C.2     1  ZINC000458730620    0.7100
      6 O6        -12.3247   -3.4773   56.2790 O.2     1  ZINC000458730620   -0.5800
      7 N7        -10.2210   -3.9661   56.7977 N.am    1  ZINC000458730620   -0.7500
      8 C8        -10.5887   -4.2780   58.1810 C.3     1  ZINC000458730620    0.1300
      9 C9        -10.5499   -2.9989   59.0198 C.3     1  ZINC000458730620    0.1000
     10 N10        -9.6135   -2.0474   58.4164 N.am    1  ZINC000458730620   -1.1100
     11 S11        -9.7105   -0.4379   58.7939 S.o2    1  ZINC000458730620    2.7000
     12 O12        -8.5914    0.1863   58.1796 O.2     1  ZINC000458730620   -0.9400
     13 O13       -11.0534   -0.0470   58.5426 O.2     1  ZINC000458730620   -0.9400
     14 C14        -9.4676   -0.2945   60.5331 C.ar    1  ZINC000458730620   -0.7300
     15 C15        -8.7764   -1.2762   61.2173 C.ar    1  ZINC000458730620    0.0400
     16 C16        -8.5847   -1.1647   62.5816 C.ar    1  ZINC000458730620   -0.1800
     17 C17        -9.0851   -0.0691   63.2643 C.ar    1  ZINC000458730620    0.1900
     18 F18        -8.8972    0.0398   64.5978 F       1  ZINC000458730620   -0.1200
     19 C19        -9.7777    0.9151   62.5800 C.ar    1  ZINC000458730620   -0.2100
     20 C20        -9.9645    0.8050   61.2131 C.ar    1  ZINC000458730620    0.2200
     21 F21       -10.6402    1.7646   60.5440 F       1  ZINC000458730620   -0.1100
     22 C22       -12.4093   -1.5000   54.1146 C.3     1  ZINC000458730620   -0.1100
     23 C23       -11.8003   -0.9643   55.4211 C.3     1  ZINC000458730620   -0.1400
     24 C24       -11.7853    0.4212   54.7539 C.3     1  ZINC000458730620   -0.1400
     25 C25       -11.7315   -0.3158   53.4053 C.3     1  ZINC000458730620   -0.1400
     26 H26       -12.0216   -2.5012   51.5777 H       1  ZINC000458730620    0.0600
     27 H27       -10.4773   -1.9820   52.2946 H       1  ZINC000458730620    0.0500
     28 H28       -10.7954   -3.7121   52.0233 H       1  ZINC000458730620    0.0800
     29 H29       -12.5976   -4.8615   53.3782 H       1  ZINC000458730620    0.0800
     30 H30       -13.4280   -3.9660   54.6730 H       1  ZINC000458730620    0.0500
     31 H31       -13.7563   -3.5741   52.9680 H       1  ZINC000458730620    0.0600
     32 H32        -9.9046   -3.3642   54.3629 H       1  ZINC000458730620    0.3900
     33 H33        -9.2969   -4.0418   56.5126 H       1  ZINC000458730620    0.4000
     34 H34       -11.5946   -4.6971   58.2040 H       1  ZINC000458730620    0.0800
     35 H35        -9.8839   -5.0020   58.5899 H       1  ZINC000458730620    0.0800
     36 H36       -11.5456   -2.5567   59.0542 H       1  ZINC000458730620    0.0900
     37 H37       -10.2234   -3.2379   60.0319 H       1  ZINC000458730620    0.0700
     38 H38        -8.9368   -2.3601   57.7960 H       1  ZINC000458730620    0.4300
     39 H39        -8.3861   -2.1313   60.6856 H       1  ZINC000458730620    0.1700
     40 H40        -8.0447   -1.9327   63.1153 H       1  ZINC000458730620    0.1600
     41 H41       -10.1684    1.7700   63.1117 H       1  ZINC000458730620    0.1600
     42 H42       -13.4982   -1.4586   54.0898 H       1  ZINC000458730620    0.1100
     43 H43       -12.4735   -1.0300   56.2758 H       1  ZINC000458730620    0.0700
     44 H44       -10.8060   -1.3577   55.6329 H       1  ZINC000458730620    0.0800
     45 H45       -12.7037    0.9886   54.9051 H       1  ZINC000458730620    0.0800
     46 H46       -10.8880    1.0007   54.9709 H       1  ZINC000458730620    0.0700
     47 H47       -10.7184   -0.5319   53.0660 H       1  ZINC000458730620    0.0800
     48 H48       -12.3491    0.1419   52.6326 H       1  ZINC000458730620    0.0700
@<TRIPOS>BOND
     1     1     2    1
     2     1    26    1
     3     1    27    1
     4     1    28    1
     5     2     3    1
     6     2     4    1
     7     2    22    1
     8     3    29    1
     9     3    30    1
    10     3    31    1
    11     4     5   am
    12     4    32    1
    13     5     6    2
    14     5     7   am
    15     7     8    1
    16     7    33    1
    17     8     9    1
    18     8    34    1
    19     8    35    1
    20     9    10    1
    21     9    36    1
    22     9    37    1
    23    10    11   am
    24    10    38    1
    25    11    12    2
    26    11    13    2
    27    11    14    1
    28    14    20   ar
    29    14    15   ar
    30    15    16   ar
    31    15    39    1
    32    16    17   ar
    33    16    40    1
    34    17    18    1
    35    17    19   ar
    36    19    20   ar
    37    19    41    1
    38    20    21    1
    39    22    25    1
    40    22    23    1
    41    22    42    1
    42    23    24    1
    43    23    43    1
    44    23    44    1
    45    24    25    1
    46    24    45    1
    47    24    46    1
    48    25    47    1
    49    25    48    1
@<TRIPOS>SUBSTRUCTURE
     1 ZINC000458730620        1 TEMP              0 ****  ****    0 ROOT


##########                                Name:    ZINC000938043669
##########                DOCK_Rotatable_Bonds:                   7
##########                         Heavy_Atoms:                  27
##########                    Molecular_Weight:             372.439
##########                DOCK_Rotatable_Bonds:                   7
##########                       Formal_Charge:           0.0499999
##########                     HBond_Acceptors:                   6
##########                        HBond_Donors:                   1
##########                         Heavy_Atoms:                  27
##########                          Grid_Score:          -34.216846
##########                     Grid_vdw_energy:          -33.871773
##########                      Grid_es_energy:           -0.345076
##########           Internal_energy_repulsive:           42.614929

@<TRIPOS>MOLECULE
ZINC000938043669
 52 55 1 0 0
SMALL
USER_CHARGES


@<TRIPOS>ATOM
      1 O1        -12.2250   -2.9730   52.1742 O.2     1  ZINC000938043669   -0.5000
      2 C2        -11.6563   -2.3313   53.0320 C.2     1  ZINC000938043669    0.5300
      3 C3        -10.8610   -1.1080   52.6549 C.3     1  ZINC000938043669    0.0500
      4 O4         -9.5032   -1.4796   52.4095 O.3     1  ZINC000938043669   -0.2800
      5 C5         -8.6251   -0.4742   52.1518 C.ar    1  ZINC000938043669    0.0900
      6 C6         -7.2813   -0.7572   51.9629 C.ar    1  ZINC000938043669   -0.1800
      7 C7         -6.3903    0.2664   51.7004 C.ar    1  ZINC000938043669   -0.0900
      8 C8         -6.8373    1.5723   51.6259 C.ar    1  ZINC000938043669   -0.1300
      9 C9         -8.1770    1.8592   51.8141 C.ar    1  ZINC000938043669   -0.1100
     10 C10        -9.0739    0.8384   52.0714 C.ar    1  ZINC000938043669    0.0800
     11 F11       -10.3827    1.1183   52.2551 F       1  ZINC000938043669   -0.1300
     12 N12       -11.7401   -2.7089   54.3231 N.am    1  ZINC000938043669   -0.6200
     13 C13       -12.4793   -3.8749   54.8286 C.3     1  ZINC000938043669    0.1000
     14 C14       -12.2682   -3.9241   56.3564 C.3     1  ZINC000938043669   -0.1400
     15 C15       -10.9607   -3.1121   56.5529 C.3     1  ZINC000938043669    0.1300
     16 H16       -10.0839   -3.7334   56.3707 H       1  ZINC000938043669    0.1100
     17 N17       -10.9092   -2.5153   57.8899 N.am    1  ZINC000938043669   -0.7200
     18 C18       -10.4015   -3.2175   58.9221 C.2     1  ZINC000938043669    0.5200
     19 O19        -9.9860   -4.3429   58.7440 O.2     1  ZINC000938043669   -0.5200
     20 C20       -10.3500   -2.6042   60.2978 C.3     1  ZINC000938043669   -0.1000
     21 H21       -10.3599   -3.3946   61.0482 H       1  ZINC000938043669    0.1000
     22 C22       -11.5661   -1.6968   60.4972 C.3     1  ZINC000938043669   -0.1100
     23 C23       -11.0966   -0.2630   60.7749 C.3     1  ZINC000938043669   -0.0600
     24 H24       -11.9480    0.4110   60.8691 H       1  ZINC000938043669    0.0800
     25 C25       -10.1954    0.1634   59.6255 C.2     1  ZINC000938043669   -0.1800
     26 C26        -9.1378   -0.6257   59.4521 C.2     1  ZINC000938043669   -0.1300
     27 C27        -9.0650   -1.7788   60.4416 C.3     1  ZINC000938043669   -0.0400
     28 H28        -8.1801   -2.3888   60.2599 H       1  ZINC000938043669    0.0900
     29 C29        -9.0323   -1.1795   61.8543 C.3     1  ZINC000938043669   -0.1200
     30 C30       -10.2626   -0.2696   62.0635 C.3     1  ZINC000938043669   -0.1100
     31 C31       -11.1006   -2.0247   55.4616 C.3     1  ZINC000938043669    0.1000
     32 H32       -11.2843   -0.6628   51.7544 H       1  ZINC000938043669    0.1000
     33 H33       -10.8982   -0.3850   53.4697 H       1  ZINC000938043669    0.1000
     34 H34        -6.9307   -1.7770   52.0211 H       1  ZINC000938043669    0.1400
     35 H35        -5.3433    0.0456   51.5537 H       1  ZINC000938043669    0.1300
     36 H36        -6.1388    2.3701   51.4206 H       1  ZINC000938043669    0.1400
     37 H37        -8.5236    2.8804   51.7558 H       1  ZINC000938043669    0.1500
     38 H38       -13.5406   -3.7668   54.6043 H       1  ZINC000938043669    0.0800
     39 H39       -12.0926   -4.7857   54.3714 H       1  ZINC000938043669    0.0800
     40 H40       -13.0996   -3.4480   56.8763 H       1  ZINC000938043669    0.0900
     41 H41       -12.1383   -4.9521   56.6949 H       1  ZINC000938043669    0.1000
     42 H42       -11.2403   -1.6147   58.0321 H       1  ZINC000938043669    0.4000
     43 H43       -12.1803   -1.7097   59.5968 H       1  ZINC000938043669    0.0700
     44 H44       -12.1531   -2.0567   61.3421 H       1  ZINC000938043669    0.0800
     45 H45       -10.3953    1.0264   59.0077 H       1  ZINC000938043669    0.1200
     46 H46        -8.4002   -0.4630   58.6802 H       1  ZINC000938043669    0.1200
     47 H47        -9.0545   -1.9831   62.5903 H       1  ZINC000938043669    0.0700
     48 H48        -8.1197   -0.5969   61.9805 H       1  ZINC000938043669    0.0700
     49 H49        -9.9306    0.7448   62.2845 H       1  ZINC000938043669    0.0700
     50 H50       -10.8558   -0.6469   62.8964 H       1  ZINC000938043669    0.0700
     51 H51       -10.1195   -1.6442   55.1774 H       1  ZINC000938043669    0.0900
     52 H52       -11.7358   -1.2124   55.8147 H       1  ZINC000938043669    0.0700
@<TRIPOS>BOND
     1     1     2    2
     2     2     3    1
     3     2    12   am
     4     3     4    1
     5     3    32    1
     6     3    33    1
     7     4     5    1
     8     5    10   ar
     9     5     6   ar
    10     6     7   ar
    11     6    34    1
    12     7     8   ar
    13     7    35    1
    14     8     9   ar
    15     8    36    1
    16     9    10   ar
    17     9    37    1
    18    10    11    1
    19    12    31    1
    20    12    13    1
    21    13    14    1
    22    13    38    1
    23    13    39    1
    24    14    15    1
    25    14    40    1
    26    14    41    1
    27    15    16    1
    28    15    17    1
    29    15    31    1
    30    17    18   am
    31    17    42    1
    32    18    19    2
    33    18    20    1
    34    20    21    1
    35    20    27    1
    36    20    22    1
    37    22    23    1
    38    22    43    1
    39    22    44    1
    40    23    24    1
    41    23    30    1
    42    23    25    1
    43    25    26    2
    44    25    45    1
    45    26    27    1
    46    26    46    1
    47    27    28    1
    48    27    29    1
    49    29    30    1
    50    29    47    1
    51    29    48    1
    52    30    49    1
    53    30    50    1
    54    31    51    1
    55    31    52    1
@<TRIPOS>SUBSTRUCTURE
     1 ZINC000938043669        1 TEMP              0 ****  ****    0 ROOT


##########                                Name:    ZINC000573650873
##########                DOCK_Rotatable_Bonds:                  10
##########                         Heavy_Atoms:                  28
##########                    Molecular_Weight:             418.843
##########                DOCK_Rotatable_Bonds:                  10
##########                       Formal_Charge:          -0.0500001
##########                     HBond_Acceptors:                   9
##########                        HBond_Donors:                   1
##########                         Heavy_Atoms:                  28
##########                          Grid_Score:          -34.198212
##########                     Grid_vdw_energy:          -31.435532
##########                      Grid_es_energy:           -2.762681
##########           Internal_energy_repulsive:           17.756104

@<TRIPOS>MOLECULE
ZINC000573650873
 50 51 1 0 0
SMALL
USER_CHARGES


@<TRIPOS>ATOM
      1 C1        -16.8375   -2.4783   58.9077 C.3     1  ZINC000573650873   -0.1400
      2 C2        -15.3680   -2.3862   58.4918 C.3     1  ZINC000573650873    0.0100
      3 C3        -14.8732   -3.7674   58.0579 C.3     1  ZINC000573650873   -0.1400
      4 C4        -15.2284   -1.4052   57.3260 C.3     1  ZINC000573650873   -0.1500
      5 C5        -14.5454   -1.9013   59.6576 C.2     1  ZINC000573650873   -0.0100
      6 C6        -13.7121   -0.8352   59.6707 C.2     1  ZINC000573650873   -0.1800
      7 C7        -13.1946   -0.8215   60.9959 C.2     1  ZINC000573650873   -0.0300
      8 C8        -12.2256    0.1470   61.5644 C.2     1  ZINC000573650873    0.6000
      9 O9        -12.6153    1.2134   61.9970 O.2     1  ZINC000573650873   -0.5100
     10 N10       -10.9128   -0.1559   61.6011 N.am    1  ZINC000573650873   -0.5900
     11 C11       -10.4428   -1.4417   61.0795 C.3     1  ZINC000573650873    0.1200
     12 C12        -9.4498   -1.1980   59.9413 C.3     1  ZINC000573650873   -0.1000
     13 C13        -9.9456   -1.8735   58.6888 C.ar    1  ZINC000573650873   -0.0800
     14 C14       -10.4683   -1.1171   57.6564 C.ar    1  ZINC000573650873   -0.1000
     15 C15       -10.9232   -1.7361   56.5073 C.ar    1  ZINC000573650873   -0.1100
     16 C16       -10.8555   -3.1129   56.3905 C.ar    1  ZINC000573650873   -0.0400
     17 Cl17      -11.4261   -3.8911   54.9474 Cl      1  ZINC000573650873   -0.0700
     18 C18       -10.3323   -3.8695   57.4240 C.ar    1  ZINC000573650873   -0.1100
     19 C19        -9.8725   -3.2488   58.5703 C.ar    1  ZINC000573650873   -0.1000
     20 C20        -9.9558    0.8006   62.1628 C.3     1  ZINC000573650873    0.0700
     21 C21        -9.5599    0.3577   63.5728 C.3     1  ZINC000573650873    0.0600
     22 H22        -9.8764   -0.6731   63.7321 H       1  ZINC000573650873    0.1400
     23 O23        -8.1413    0.4486   63.7198 O.3     1  ZINC000573650873   -0.5200
     24 C24       -10.2384    1.2644   64.6015 C.3     1  ZINC000573650873    0.4300
     25 F25       -11.6101    0.9908   64.6316 F       1  ZINC000573650873   -0.1700
     26 F26        -9.6881    1.0285   65.8659 F       1  ZINC000573650873   -0.1700
     27 F27       -10.0375    2.6029   64.2479 F       1  ZINC000573650873   -0.1800
     28 N28       -13.7470   -1.8364   61.6127 N.2     1  ZINC000573650873   -0.3400
     29 O29       -14.5013   -2.4387   60.8846 O.3     1  ZINC000573650873    0.1300
     30 H30       -16.9369   -3.1773   59.7382 H       1  ZINC000573650873    0.0600
     31 H31       -17.1900   -1.4943   59.2168 H       1  ZINC000573650873    0.0600
     32 H32       -17.4325   -2.8290   58.0644 H       1  ZINC000573650873    0.0700
     33 H33       -15.4682   -4.1181   57.2147 H       1  ZINC000573650873    0.0700
     34 H34       -13.8263   -3.7017   57.7616 H       1  ZINC000573650873    0.0600
     35 H35       -14.9726   -4.4664   58.8884 H       1  ZINC000573650873    0.0600
     36 H36       -15.5809   -0.4211   57.6351 H       1  ZINC000573650873    0.0600
     37 H37       -14.1816   -1.3395   57.0297 H       1  ZINC000573650873    0.0600
     38 H38       -15.8235   -1.7559   56.4828 H       1  ZINC000573650873    0.0700
     39 H39       -13.4910   -0.1535   58.8628 H       1  ZINC000573650873    0.1800
     40 H40        -9.9518   -1.9996   61.8768 H       1  ZINC000573650873    0.0900
     41 H41       -11.2915   -2.0139   60.7049 H       1  ZINC000573650873    0.1000
     42 H42        -9.3566   -0.1266   59.7636 H       1  ZINC000573650873    0.0800
     43 H43        -8.4769   -1.6070   60.2140 H       1  ZINC000573650873    0.0800
     44 H44       -10.5215   -0.0422   57.7479 H       1  ZINC000573650873    0.1300
     45 H45       -11.3319   -1.1450   55.7011 H       1  ZINC000573650873    0.1300
     46 H46       -10.2794   -4.9444   57.3336 H       1  ZINC000573650873    0.1300
     47 H47        -9.4638   -3.8393   59.3770 H       1  ZINC000573650873    0.1300
     48 H48        -9.0682    0.8397   61.5315 H       1  ZINC000573650873    0.1000
     49 H49       -10.4136    1.7889   62.2076 H       1  ZINC000573650873    0.1200
     50 H50        -7.7852    1.3333   63.5596 H       1  ZINC000573650873    0.3900
@<TRIPOS>BOND
     1     1     2    1
     2     1    30    1
     3     1    31    1
     4     1    32    1
     5     2     3    1
     6     2     4    1
     7     2     5    1
     8     3    33    1
     9     3    34    1
    10     3    35    1
    11     4    36    1
    12     4    37    1
    13     4    38    1
    14     5    29    1
    15     5     6    2
    16     6     7    1
    17     6    39    1
    18     7     8    1
    19     7    28    2
    20     8     9    2
    21     8    10   am
    22    10    11    1
    23    10    20    1
    24    11    12    1
    25    11    40    1
    26    11    41    1
    27    12    13    1
    28    12    42    1
    29    12    43    1
    30    13    19   ar
    31    13    14   ar
    32    14    15   ar
    33    14    44    1
    34    15    16   ar
    35    15    45    1
    36    16    17    1
    37    16    18   ar
    38    18    19   ar
    39    18    46    1
    40    19    47    1
    41    20    21    1
    42    20    48    1
    43    20    49    1
    44    21    22    1
    45    21    23    1
    46    21    24    1
    47    23    50    1
    48    24    25    1
    49    24    26    1
    50    24    27    1
    51    28    29    1
@<TRIPOS>SUBSTRUCTURE
     1 ZINC000573650873        1 TEMP              0 ****  ****    0 ROOT


##########                                Name:    ZINC000991934963
##########                DOCK_Rotatable_Bonds:                   8
##########                         Heavy_Atoms:                  27
##########                    Molecular_Weight:             370.495
##########                DOCK_Rotatable_Bonds:                   8
##########                       Formal_Charge:          -0.0499997
##########                     HBond_Acceptors:                   6
##########                        HBond_Donors:                   1
##########                         Heavy_Atoms:                  27
##########                          Grid_Score:          -34.180050
##########                     Grid_vdw_energy:          -34.738796
##########                      Grid_es_energy:            0.558746
##########           Internal_energy_repulsive:           14.567681

@<TRIPOS>MOLECULE
ZINC000991934963
 57 61 1 0 0
SMALL
USER_CHARGES


@<TRIPOS>ATOM
      1 C1         -9.7623   -0.2569   60.8642 C.3     1  ZINC000991934963    0.0400
      2 O2         -9.0219   -1.4782   60.8148 O.3     1  ZINC000991934963   -0.2900
      3 C3         -9.2937   -2.3211   59.7899 C.ar    1  ZINC000991934963    0.5000
      4 N4         -8.6587   -3.4798   59.7214 N.ar    1  ZINC000991934963   -0.5700
      5 C5         -8.9001   -4.3264   58.7338 C.ar    1  ZINC000991934963    0.1900
      6 C6         -9.8306   -3.9865   57.7649 C.ar    1  ZINC000991934963   -0.2700
      7 C7        -10.4771   -2.7647   57.8678 C.ar    1  ZINC000991934963    0.2200
      8 C8        -11.4967   -2.3519   56.8378 C.3     1  ZINC000991934963    0.1000
      9 N9        -10.8231   -1.6553   55.7337 N.3     1  ZINC000991934963   -0.4900
     10 C10       -10.8677   -0.1715   55.9289 C.3     1  ZINC000991934963    0.0400
     11 C11       -11.4447    0.4324   54.6101 C.3     1  ZINC000991934963   -0.1400
     12 C12       -11.1010   -0.6642   53.6042 C.3     1  ZINC000991934963    0.1700
     13 N13        -9.6874   -0.6450   53.2202 N.am    1  ZINC000991934963   -0.7000
     14 C14        -9.1981    0.3852   52.5020 C.2     1  ZINC000991934963    0.5200
     15 O15        -9.9285    1.2956   52.1724 O.2     1  ZINC000991934963   -0.5300
     16 C16        -7.7435    0.4059   52.1085 C.3     1  ZINC000991934963   -0.1100
     17 C17        -7.2425    1.8513   52.0831 C.3     1  ZINC000991934963   -0.1300
     18 H18        -7.0201    2.2889   53.0564 H       1  ZINC000991934963    0.1200
     19 C19        -7.8102    2.7770   51.0054 C.3     1  ZINC000991934963   -0.1700
     20 C20        -6.3678    2.2752   50.9016 C.3     1  ZINC000991934963   -0.1200
     21 H21        -6.1496    1.5245   50.1420 H       1  ZINC000991934963    0.1000
     22 C22        -5.2482    3.2814   51.1757 C.3     1  ZINC000991934963   -0.1200
     23 C23        -4.4152    3.0832   52.4436 C.3     1  ZINC000991934963   -0.1800
     24 C24        -3.8066    2.7794   51.0732 C.3     1  ZINC000991934963   -0.1800
     25 C25       -12.0302   -0.9239   52.4233 C.3     1  ZINC000991934963   -0.1200
     26 C26       -11.8480   -2.4551   52.1836 C.3     1  ZINC000991934963   -0.1200
     27 C27       -11.4026   -3.0515   53.5533 C.3     1  ZINC000991934963   -0.1000
     28 C28       -11.4842   -1.8999   54.4973 C.3     1  ZINC000991934963    0.0500
     29 H29       -12.5452   -1.7499   54.6970 H       1  ZINC000991934963    0.0400
     30 N30       -10.1918   -1.9678   58.8844 N.ar    1  ZINC000991934963   -0.5000
     31 H31       -10.8263   -0.4800   60.9429 H       1  ZINC000991934963    0.0600
     32 H32        -9.4478    0.3238   61.7314 H       1  ZINC000991934963    0.1100
     33 H33        -9.5775    0.3170   59.9562 H       1  ZINC000991934963    0.0600
     34 H34        -8.3782   -5.2707   58.6831 H       1  ZINC000991934963    0.1700
     35 H35       -10.0471   -4.6584   56.9475 H       1  ZINC000991934963    0.1500
     36 H36       -12.0037   -3.2371   56.4533 H       1  ZINC000991934963    0.1000
     37 H37       -12.2271   -1.6853   57.2962 H       1  ZINC000991934963    0.0600
     38 H38       -11.5172    0.0757   56.7687 H       1  ZINC000991934963    0.0600
     39 H39        -9.8631    0.2124   56.1075 H       1  ZINC000991934963    0.0800
     40 H40       -12.5230    0.5733   54.6829 H       1  ZINC000991934963    0.0800
     41 H41       -10.9453    1.3674   54.3561 H       1  ZINC000991934963    0.0900
     42 H42        -9.1035   -1.3737   53.4828 H       1  ZINC000991934963    0.4000
     43 H43        -7.1634   -0.1671   52.8319 H       1  ZINC000991934963    0.1000
     44 H44        -7.6285   -0.0359   51.1188 H       1  ZINC000991934963    0.0900
     45 H45        -8.5407    2.3563   50.3144 H       1  ZINC000991934963    0.0900
     46 H46        -7.9611    3.8238   51.2695 H       1  ZINC000991934963    0.1000
     47 H47        -5.4485    4.3052   50.8595 H       1  ZINC000991934963    0.1000
     48 H48        -4.0672    3.9768   52.9619 H       1  ZINC000991934963    0.0900
     49 H49        -4.6647    2.2360   53.0825 H       1  ZINC000991934963    0.0900
     50 H50        -3.6557    1.7324   50.8104 H       1  ZINC000991934963    0.0900
     51 H51        -3.0582    3.4731   50.6899 H       1  ZINC000991934963    0.0900
     52 H52       -13.0629   -0.6930   52.6848 H       1  ZINC000991934963    0.0800
     53 H53       -11.7143   -0.3547   51.5491 H       1  ZINC000991934963    0.0800
     54 H54       -12.7913   -2.9011   51.8685 H       1  ZINC000991934963    0.0700
     55 H55       -11.0794   -2.6287   51.4304 H       1  ZINC000991934963    0.0700
     56 H56       -12.0813   -3.8465   53.8620 H       1  ZINC000991934963    0.0700
     57 H57       -10.3800   -3.4236   53.4929 H       1  ZINC000991934963    0.0700
@<TRIPOS>BOND
     1     1     2    1
     2     1    31    1
     3     1    32    1
     4     1    33    1
     5     2     3    1
     6     3    30   ar
     7     3     4   ar
     8     4     5   ar
     9     5     6   ar
    10     5    34    1
    11     6     7   ar
    12     6    35    1
    13     7     8    1
    14     7    30   ar
    15     8     9    1
    16     8    36    1
    17     8    37    1
    18     9    28    1
    19     9    10    1
    20    10    11    1
    21    10    38    1
    22    10    39    1
    23    11    12    1
    24    11    40    1
    25    11    41    1
    26    12    28    1
    27    12    13    1
    28    12    25    1
    29    13    14   am
    30    13    42    1
    31    14    15    2
    32    14    16    1
    33    16    17    1
    34    16    43    1
    35    16    44    1
    36    17    18    1
    37    17    20    1
    38    17    19    1
    39    19    20    1
    40    19    45    1
    41    19    46    1
    42    20    21    1
    43    20    22    1
    44    22    24    1
    45    22    23    1
    46    22    47    1
    47    23    24    1
    48    23    48    1
    49    23    49    1
    50    24    50    1
    51    24    51    1
    52    25    26    1
    53    25    52    1
    54    25    53    1
    55    26    27    1
    56    26    54    1
    57    26    55    1
    58    27    28    1
    59    27    56    1
    60    27    57    1
    61    28    29    1
@<TRIPOS>SUBSTRUCTURE
     1 ZINC000991934963        1 TEMP              0 ****  ****    0 ROOT


##########                                Name:    ZINC001220171460
##########                DOCK_Rotatable_Bonds:                  10
##########                         Heavy_Atoms:                  25
##########                    Molecular_Weight:             383.773
##########                DOCK_Rotatable_Bonds:                  10
##########                       Formal_Charge:           0.0199996
##########                     HBond_Acceptors:                  10
##########                        HBond_Donors:                   3
##########                         Heavy_Atoms:                  25
##########                          Grid_Score:          -34.171505
##########                     Grid_vdw_energy:          -29.854004
##########                      Grid_es_energy:           -4.317502
##########           Internal_energy_repulsive:            9.634551

@<TRIPOS>MOLECULE
ZINC001220171460
 43 44 1 0 0
SMALL
USER_CHARGES


@<TRIPOS>ATOM
      1 C1         -9.9338    0.9322   58.3757 C.3     1  ZINC001220171460    0.0200
      2 O2         -9.0047   -0.1439   58.5193 O.3     1  ZINC001220171460   -0.3100
      3 C3         -9.5068   -1.4064   58.4523 C.ar    1  ZINC001220171460    0.1000
      4 C4        -10.2099   -1.8145   57.3314 C.ar    1  ZINC001220171460   -0.1500
      5 C5        -10.7205   -3.0989   57.2638 C.ar    1  ZINC001220171460   -0.0600
      6 Cl6       -11.6011   -3.6083   55.8570 Cl      1  ZINC001220171460   -0.0400
      7 C7        -10.5300   -3.9791   58.3163 C.ar    1  ZINC001220171460    0.1000
      8 F8        -11.0297   -5.2323   58.2464 F       1  ZINC001220171460   -0.1200
      9 C9         -9.8281   -3.5767   59.4394 C.ar    1  ZINC001220171460   -0.1200
     10 C10        -9.3096   -2.2924   59.5091 C.ar    1  ZINC001220171460    0.1800
     11 N11        -8.5983   -1.8828   60.6457 N.am    1  ZINC001220171460   -0.6700
     12 C12        -9.1977   -1.1112   61.5740 C.2     1  ZINC001220171460    0.7100
     13 O13       -10.3554   -0.7704   61.4258 O.2     1  ZINC001220171460   -0.5700
     14 N14        -8.5139   -0.7175   62.6667 N.am    1  ZINC001220171460   -0.7400
     15 C15        -9.1649    0.1227   63.6749 C.3     1  ZINC001220171460    0.1400
     16 C16        -8.2326    0.2930   64.8760 C.3     1  ZINC001220171460   -0.1400
     17 C17        -8.7339    1.4433   65.7516 C.3     1  ZINC001220171460    0.0500
     18 H18        -8.9626    2.3046   65.1240 H       1  ZINC001220171460    0.1000
     19 N19        -9.9464    1.0223   66.4661 N.3     1  ZINC001220171460   -0.6500
     20 C20       -11.1527    1.5387   65.8057 C.3     1  ZINC001220171460    0.0100
     21 C21       -12.1669    2.2877   66.6726 C.3     1  ZINC001220171460   -0.2000
     22 C22       -11.2938    3.0569   65.6790 C.3     1  ZINC001220171460   -0.1600
     23 C23        -7.6512    1.8230   66.7638 C.3     1  ZINC001220171460    0.4600
     24 F24        -6.4773    2.1655   66.0845 F       1  ZINC001220171460   -0.1800
     25 F25        -8.0855    2.9143   67.5238 F       1  ZINC001220171460   -0.1800
     26 F26        -7.4010    0.7363   67.6087 F       1  ZINC001220171460   -0.1700
     27 H27       -10.4229    0.8627   57.4041 H       1  ZINC001220171460    0.0600
     28 H28       -10.6834    0.8729   59.1648 H       1  ZINC001220171460    0.0600
     29 H29        -9.4039    1.8820   58.4486 H       1  ZINC001220171460    0.1100
     30 H30       -10.3601   -1.1300   56.5095 H       1  ZINC001220171460    0.1500
     31 H31        -9.6805   -4.2639   60.2593 H       1  ZINC001220171460    0.1800
     32 H32        -7.6747   -2.1547   60.7639 H       1  ZINC001220171460    0.4200
     33 H33        -7.5907   -0.9904   62.7855 H       1  ZINC001220171460    0.4000
     34 H34        -9.3867    1.0997   63.2456 H       1  ZINC001220171460    0.0800
     35 H35       -10.0919   -0.3507   63.9988 H       1  ZINC001220171460    0.0700
     36 H36        -8.2189   -0.6278   65.4589 H       1  ZINC001220171460    0.1000
     37 H37        -7.2250    0.5160   64.5250 H       1  ZINC001220171460    0.1000
     38 H38        -9.9841    0.0179   66.5537 H       1  ZINC001220171460    0.3600
     39 H39       -11.5408    0.9275   64.9909 H       1  ZINC001220171460    0.1200
     40 H40       -13.2225    2.1693   66.4282 H       1  ZINC001220171460    0.1000
     41 H41       -11.9389    2.3973   67.7328 H       1  ZINC001220171460    0.1000
     42 H42       -10.4914    3.6725   66.0857 H       1  ZINC001220171460    0.1000
     43 H43       -11.7750    3.4444   64.7811 H       1  ZINC001220171460    0.1000
@<TRIPOS>BOND
     1     1     2    1
     2     1    27    1
     3     1    28    1
     4     1    29    1
     5     2     3    1
     6     3    10   ar
     7     3     4   ar
     8     4     5   ar
     9     4    30    1
    10     5     6    1
    11     5     7   ar
    12     7     8    1
    13     7     9   ar
    14     9    10   ar
    15     9    31    1
    16    10    11    1
    17    11    12   am
    18    11    32    1
    19    12    13    2
    20    12    14   am
    21    14    15    1
    22    14    33    1
    23    15    16    1
    24    15    34    1
    25    15    35    1
    26    16    17    1
    27    16    36    1
    28    16    37    1
    29    17    18    1
    30    17    19    1
    31    17    23    1
    32    19    20    1
    33    19    38    1
    34    20    22    1
    35    20    21    1
    36    20    39    1
    37    21    22    1
    38    21    40    1
    39    21    41    1
    40    22    42    1
    41    22    43    1
    42    23    24    1
    43    23    25    1
    44    23    26    1
@<TRIPOS>SUBSTRUCTURE
     1 ZINC001220171460        1 TEMP              0 ****  ****    0 ROOT


##########                                Name:    ZINC000185180600
##########                DOCK_Rotatable_Bonds:                   7
##########                         Heavy_Atoms:                  26
##########                    Molecular_Weight:             395.953
##########                DOCK_Rotatable_Bonds:                   7
##########                       Formal_Charge:          0.00999977
##########                     HBond_Acceptors:                   7
##########                        HBond_Donors:                   0
##########                         Heavy_Atoms:                  26
##########                          Grid_Score:          -34.142746
##########                     Grid_vdw_energy:          -33.716961
##########                      Grid_es_energy:           -0.425787
##########           Internal_energy_repulsive:           16.200457

@<TRIPOS>MOLECULE
ZINC000185180600
 52 53 1 0 0
SMALL
USER_CHARGES


@<TRIPOS>ATOM
      1 C1        -13.3929    2.7060   48.8646 C.3     1  ZINC000185180600   -0.1500
      2 C2        -13.8345    1.4685   49.6485 C.3     1  ZINC000185180600   -0.0900
      3 C3        -14.6715    1.9005   50.8543 C.3     1  ZINC000185180600   -0.1500
      4 C4        -14.6731    0.5638   48.7435 C.3     1  ZINC000185180600   -0.1300
      5 C5        -14.1976   -0.8832   48.8874 C.3     1  ZINC000185180600    0.1300
      6 H6        -13.1096   -0.9037   48.9502 H       1  ZINC000185180600    0.1100
      7 C7        -14.6536   -1.6932   47.6720 C.3     1  ZINC000185180600   -0.1600
      8 N8        -14.7680   -1.4659   50.1045 N.am    1  ZINC000185180600   -0.6000
      9 C9        -16.2136   -1.6809   50.2058 C.3     1  ZINC000185180600    0.0700
     10 C10       -13.9630   -1.8043   51.1310 C.2     1  ZINC000185180600    0.5400
     11 O11       -12.7663   -1.6250   51.0477 O.2     1  ZINC000185180600   -0.5300
     12 C12       -14.5495   -2.4054   52.3823 C.3     1  ZINC000185180600   -0.5000
     13 S13       -13.2207   -2.7487   53.5685 S.o     1  ZINC000185180600    1.3200
     14 O14       -12.3418   -3.7246   53.0257 O.2     1  ZINC000185180600   -0.8000
     15 C15       -14.1093   -3.4554   54.9833 C.3     1  ZINC000185180600   -0.3900
     16 C16       -13.1266   -3.7994   56.0727 C.2     1  ZINC000185180600    0.1000
     17 N17       -12.6123   -2.9598   56.9350 N.2     1  ZINC000185180600   -0.2800
     18 N18       -11.7475   -3.6711   57.7768 N.pl3   1  ZINC000185180600   -0.3200
     19 C19       -10.9994   -3.1351   58.8346 C.ar    1  ZINC000185180600    0.1700
     20 C20       -11.5220   -2.1038   59.6032 C.ar    1  ZINC000185180600   -0.1300
     21 C21       -10.7833   -1.5774   60.6446 C.ar    1  ZINC000185180600   -0.0800
     22 C22        -9.5228   -2.0768   60.9219 C.ar    1  ZINC000185180600   -0.0500
     23 Cl23       -8.5966   -1.4131   62.2317 Cl      1  ZINC000185180600   -0.0600
     24 C24        -8.9998   -3.1049   60.1573 C.ar    1  ZINC000185180600   -0.0800
     25 C25        -9.7372   -3.6387   59.1187 C.ar    1  ZINC000185180600   -0.1100
     26 C26       -11.7618   -4.9662   57.3884 C.2     1  ZINC000185180600    0.0600
     27 C27       -12.6116   -5.0725   56.3404 C.2     1  ZINC000185180600   -0.2500
     28 H28       -12.7955    3.3506   49.5094 H       1  ZINC000185180600    0.0500
     29 H29       -12.7967    2.3984   48.0056 H       1  ZINC000185180600    0.0600
     30 H30       -14.2720    3.2508   48.5203 H       1  ZINC000185180600    0.0500
     31 H31       -12.9555    0.9238   49.9929 H       1  ZINC000185180600    0.0700
     32 H32       -14.0503    2.4764   51.5403 H       1  ZINC000185180600    0.0500
     33 H33       -15.5056    2.5154   50.5161 H       1  ZINC000185180600    0.0500
     34 H34       -15.0549    1.0175   51.3655 H       1  ZINC000185180600    0.0500
     35 H35       -15.7218    0.6322   49.0326 H       1  ZINC000185180600    0.0700
     36 H36       -14.5604    0.8818   47.7070 H       1  ZINC000185180600    0.0800
     37 H37       -15.7416   -1.6727   47.6093 H       1  ZINC000185180600    0.0600
     38 H38       -14.2292   -1.2596   46.7665 H       1  ZINC000185180600    0.0700
     39 H39       -14.3149   -2.7242   47.7746 H       1  ZINC000185180600    0.0600
     40 H40       -16.4601   -2.6750   49.8330 H       1  ZINC000185180600    0.0600
     41 H41       -16.5213   -1.5972   51.2481 H       1  ZINC000185180600    0.0700
     42 H42       -16.7350   -0.9305   49.6116 H       1  ZINC000185180600    0.0800
     43 H43       -15.2586   -1.7051   52.8238 H       1  ZINC000185180600    0.1500
     44 H44       -15.0630   -3.3339   52.1331 H       1  ZINC000185180600    0.1200
     45 H45       -14.8294   -2.7290   55.3597 H       1  ZINC000185180600    0.1400
     46 H46       -14.6338   -4.3578   54.6690 H       1  ZINC000185180600    0.1000
     47 H47       -12.5054   -1.7132   59.3866 H       1  ZINC000185180600    0.1400
     48 H48       -11.1894   -0.7750   61.2426 H       1  ZINC000185180600    0.1500
     49 H49        -8.0157   -3.4927   60.3755 H       1  ZINC000185180600    0.1400
     50 H50        -9.3286   -4.4409   58.5223 H       1  ZINC000185180600    0.1500
     51 H51       -11.1998   -5.7721   57.8369 H       1  ZINC000185180600    0.1800
     52 H52       -12.8450   -5.9786   55.8012 H       1  ZINC000185180600    0.1700
@<TRIPOS>BOND
     1     1     2    1
     2     1    28    1
     3     1    29    1
     4     1    30    1
     5     2     3    1
     6     2     4    1
     7     2    31    1
     8     3    32    1
     9     3    33    1
    10     3    34    1
    11     4     5    1
    12     4    35    1
    13     4    36    1
    14     5     6    1
    15     5     7    1
    16     5     8    1
    17     7    37    1
    18     7    38    1
    19     7    39    1
    20     8     9    1
    21     8    10   am
    22     9    40    1
    23     9    41    1
    24     9    42    1
    25    10    11    2
    26    10    12    1
    27    12    13    1
    28    12    43    1
    29    12    44    1
    30    13    14    2
    31    13    15    1
    32    15    16    1
    33    15    45    1
    34    15    46    1
    35    16    27    1
    36    16    17    2
    37    17    18    1
    38    18    19    1
    39    18    26    1
    40    19    25   ar
    41    19    20   ar
    42    20    21   ar
    43    20    47    1
    44    21    22   ar
    45    21    48    1
    46    22    23    1
    47    22    24   ar
    48    24    25   ar
    49    24    49    1
    50    25    50    1
    51    26    27    2
    52    26    51    1
    53    27    52    1
@<TRIPOS>SUBSTRUCTURE
     1 ZINC000185180600        1 TEMP              0 ****  ****    0 ROOT


##########                                Name:    ZINC000549659617
##########                DOCK_Rotatable_Bonds:                   9
##########                         Heavy_Atoms:                  28
##########                    Molecular_Weight:              418.48
##########                DOCK_Rotatable_Bonds:                   9
##########                       Formal_Charge:          0.00999956
##########                     HBond_Acceptors:                   9
##########                        HBond_Donors:                   1
##########                         Heavy_Atoms:                  28
##########                          Grid_Score:          -34.141357
##########                     Grid_vdw_energy:          -31.193718
##########                      Grid_es_energy:           -2.947638
##########           Internal_energy_repulsive:           25.248964

@<TRIPOS>MOLECULE
ZINC000549659617
 53 55 1 0 0
SMALL
USER_CHARGES


@<TRIPOS>ATOM
      1 C1         -8.6997   -3.2523   59.7985 C.3     1  ZINC000549659617   -0.1500
      2 C2         -9.4747   -2.6717   58.6138 C.3     1  ZINC000549659617   -0.1500
      3 C3        -10.9426   -3.0925   58.7093 C.3     1  ZINC000549659617    0.1100
      4 N4        -11.7991   -1.9661   58.3295 N.am    1  ZINC000549659617   -0.6100
      5 C5        -11.9288   -1.6259   57.0318 C.2     1  ZINC000549659617    0.7100
      6 O6        -12.6408   -0.6922   56.7164 O.2     1  ZINC000549659617   -0.5700
      7 N7        -11.2693   -2.3208   56.0838 N.am    1  ZINC000549659617   -0.7400
      8 C8        -11.4117   -1.9520   54.6731 C.3     1  ZINC000549659617    0.2300
      9 H9        -12.3672   -1.4493   54.5236 H       1  ZINC000549659617    0.1100
     10 C10       -10.2898   -1.0256   54.2804 C.ar    1  ZINC000549659617   -0.0900
     11 C11        -9.6795   -1.1631   53.0479 C.ar    1  ZINC000549659617   -0.0800
     12 C12        -8.6503   -0.3132   52.6876 C.ar    1  ZINC000549659617   -0.1100
     13 C13        -8.2321    0.6742   53.5597 C.ar    1  ZINC000549659617   -0.0700
     14 C14        -8.8431    0.8123   54.7922 C.ar    1  ZINC000549659617   -0.1800
     15 C15        -8.3868    1.8885   55.7431 C.3     1  ZINC000549659617    0.5100
     16 F16        -7.8634    2.9626   55.0154 F       1  ZINC000549659617   -0.1800
     17 F17        -9.4738    2.3279   56.5065 F       1  ZINC000549659617   -0.1700
     18 F18        -7.3995    1.3742   56.5905 F       1  ZINC000549659617   -0.1700
     19 C19        -9.8749   -0.0346   55.1506 C.ar    1  ZINC000549659617   -0.0500
     20 C20       -11.3581   -3.2132   53.8084 C.3     1  ZINC000549659617   -0.1700
     21 C21       -12.6402   -4.0386   53.6828 C.3     1  ZINC000549659617   -0.1700
     22 C22       -12.1477   -3.2053   52.4979 C.3     1  ZINC000549659617   -0.1800
     23 C23       -12.5145   -1.2097   59.3601 C.3     1  ZINC000549659617    0.1700
     24 H24       -12.9759   -0.3253   58.9210 H       1  ZINC000549659617    0.1100
     25 C25       -11.5434   -0.7966   60.4800 C.3     1  ZINC000549659617   -0.1400
     26 C26       -12.3639   -0.3133   61.6924 C.3     1  ZINC000549659617   -0.5900
     27 S27       -13.9531   -1.2120   61.5805 S.o2    1  ZINC000549659617    2.3900
     28 O28       -14.0415   -2.1472   62.6468 O.2     1  ZINC000549659617   -0.9300
     29 O29       -15.0060   -0.2820   61.3659 O.2     1  ZINC000549659617   -0.9400
     30 C30       -13.5979   -2.1026   60.0180 C.3     1  ZINC000549659617   -0.6100
     31 H31        -7.6539   -2.9526   59.7305 H       1  ZINC000549659617    0.0600
     32 H32        -9.1252   -2.8779   60.7295 H       1  ZINC000549659617    0.0600
     33 H33        -8.7680   -4.3400   59.7794 H       1  ZINC000549659617    0.0600
     34 H34        -9.4064   -1.5840   58.6329 H       1  ZINC000549659617    0.0700
     35 H35        -9.0492   -3.0462   57.6828 H       1  ZINC000549659617    0.0700
     36 H36       -11.1249   -3.9306   58.0367 H       1  ZINC000549659617    0.0800
     37 H37       -11.1689   -3.3919   59.7327 H       1  ZINC000549659617    0.0900
     38 H38       -10.7004   -3.0650   56.3355 H       1  ZINC000549659617    0.4000
     39 H39       -10.0064   -1.9346   52.3665 H       1  ZINC000549659617    0.1300
     40 H40        -8.1729   -0.4210   51.7249 H       1  ZINC000549659617    0.1400
     41 H41        -7.4276    1.3377   53.2785 H       1  ZINC000549659617    0.1400
     42 H42       -10.3523    0.0732   56.1133 H       1  ZINC000549659617    0.1400
     43 H43       -10.4111   -3.7526   53.8221 H       1  ZINC000549659617    0.1100
     44 H44       -12.5367   -5.1216   53.6140 H       1  ZINC000549659617    0.0900
     45 H45       -13.5218   -3.6833   54.2162 H       1  ZINC000549659617    0.0900
     46 H46       -12.7055   -2.3016   52.2519 H       1  ZINC000549659617    0.1200
     47 H47       -11.7204   -3.7398   51.6496 H       1  ZINC000549659617    0.0900
     48 H48       -10.9319   -1.6514   60.7687 H       1  ZINC000549659617    0.1100
     49 H49       -10.8999    0.0098   60.1281 H       1  ZINC000549659617    0.0900
     50 H50       -11.8514   -0.5649   62.6210 H       1  ZINC000549659617    0.1400
     51 H51       -12.5320    0.7619   61.6313 H       1  ZINC000549659617    0.1400
     52 H52       -14.4887   -2.1564   59.3922 H       1  ZINC000549659617    0.1400
     53 H53       -13.2059   -3.0992   60.2214 H       1  ZINC000549659617    0.1600
@<TRIPOS>BOND
     1     1     2    1
     2     1    31    1
     3     1    32    1
     4     1    33    1
     5     2     3    1
     6     2    34    1
     7     2    35    1
     8     3     4    1
     9     3    36    1
    10     3    37    1
    11     4     5   am
    12     4    23    1
    13     5     6    2
    14     5     7   am
    15     7     8    1
    16     7    38    1
    17     8     9    1
    18     8    10    1
    19     8    20    1
    20    10    19   ar
    21    10    11   ar
    22    11    12   ar
    23    11    39    1
    24    12    13   ar
    25    12    40    1
    26    13    14   ar
    27    13    41    1
    28    14    15    1
    29    14    19   ar
    30    15    16    1
    31    15    17    1
    32    15    18    1
    33    19    42    1
    34    20    22    1
    35    20    21    1
    36    20    43    1
    37    21    22    1
    38    21    44    1
    39    21    45    1
    40    22    46    1
    41    22    47    1
    42    23    24    1
    43    23    30    1
    44    23    25    1
    45    25    26    1
    46    25    48    1
    47    25    49    1
    48    26    27    1
    49    26    50    1
    50    26    51    1
    51    27    28    2
    52    27    29    2
    53    27    30    1
    54    30    52    1
    55    30    53    1
@<TRIPOS>SUBSTRUCTURE
     1 ZINC000549659617        1 TEMP              0 ****  ****    0 ROOT


##########                                Name:    ZINC000001174632
##########                DOCK_Rotatable_Bonds:                   6
##########                         Heavy_Atoms:                  29
##########                    Molecular_Weight:             385.419
##########                DOCK_Rotatable_Bonds:                   6
##########                       Formal_Charge:           0.0400005
##########                     HBond_Acceptors:                   5
##########                        HBond_Donors:                   1
##########                         Heavy_Atoms:                  29
##########                          Grid_Score:          -34.114326
##########                     Grid_vdw_energy:          -31.468948
##########                      Grid_es_energy:           -2.645376
##########           Internal_energy_repulsive:            6.799272

@<TRIPOS>MOLECULE
ZINC000001174632
 48 51 1 0 0
SMALL
USER_CHARGES


@<TRIPOS>ATOM
      1 C1         -8.9635   -3.7543   59.9364 C.3     1  ZINC000001174632    0.0400
      2 O2         -8.6643   -2.4188   59.4516 O.3     1  ZINC000001174632   -0.3500
      3 C3         -9.7045   -1.6747   59.0269 C.2     1  ZINC000001174632    0.5200
      4 O4        -10.6209   -2.1989   58.4252 O.2     1  ZINC000001174632   -0.5200
      5 C5         -9.7306   -0.2254   59.2922 C.ar    1  ZINC000001174632   -0.2000
      6 C6         -9.1926    0.6690   58.3637 C.ar    1  ZINC000001174632   -0.0200
      7 C7         -9.2206    2.0234   58.6178 C.ar    1  ZINC000001174632   -0.1800
      8 C8         -9.7801    2.5046   59.7906 C.ar    1  ZINC000001174632   -0.0300
      9 C9        -10.3154    1.6341   60.7183 C.ar    1  ZINC000001174632   -0.1900
     10 C10       -10.3019    0.2659   60.4777 C.ar    1  ZINC000001174632    0.2600
     11 N11       -10.8402   -0.6121   61.4093 N.pl3   1  ZINC000001174632   -0.6500
     12 C12       -11.6955   -0.1475   62.3750 C.2     1  ZINC000001174632    0.2300
     13 C13       -13.0728   -0.2529   62.3423 C.2     1  ZINC000001174632   -0.1800
     14 C14       -13.8682   -0.8828   61.2651 C.ar    1  ZINC000001174632   -0.0600
     15 C15       -14.2614   -2.2175   61.3747 C.ar    1  ZINC000001174632   -0.0600
     16 C16       -15.0025   -2.8008   60.3686 C.ar    1  ZINC000001174632   -0.1500
     17 C17       -15.3571   -2.0627   59.2477 C.ar    1  ZINC000001174632    0.1400
     18 O18       -16.0878   -2.6415   58.2582 O.3     1  ZINC000001174632   -0.3200
     19 C19       -17.5101   -2.5539   58.3659 C.3     1  ZINC000001174632    0.0300
     20 C20       -14.9680   -0.7349   59.1349 C.ar    1  ZINC000001174632   -0.2100
     21 C21       -14.2320   -0.1423   60.1394 C.ar    1  ZINC000001174632   -0.0500
     22 C22       -13.6123    0.3664   63.5595 C.2     1  ZINC000001174632    0.4500
     23 O23       -14.7849    0.4561   63.8664 O.2     1  ZINC000001174632   -0.4100
     24 C24       -12.4503    0.8635   64.3467 C.ar    1  ZINC000001174632   -0.1600
     25 C25       -12.3501    1.5210   65.5583 C.ar    1  ZINC000001174632   -0.0500
     26 C26       -11.0986    1.8692   66.0569 C.ar    1  ZINC000001174632   -0.1100
     27 C27        -9.9586    1.5610   65.3468 C.ar    1  ZINC000001174632   -0.0900
     28 C28       -10.0473    0.8999   64.1274 C.ar    1  ZINC000001174632   -0.0800
     29 C29       -11.2887    0.5419   63.6226 C.ar    1  ZINC000001174632   -0.0600
     30 H30        -9.4322   -4.3332   59.1406 H       1  ZINC000001174632    0.0700
     31 H31        -8.0403   -4.2438   60.2464 H       1  ZINC000001174632    0.1100
     32 H32        -9.6429   -3.6886   60.7863 H       1  ZINC000001174632    0.0700
     33 H33        -8.7549    0.2996   57.4482 H       1  ZINC000001174632    0.1400
     34 H34        -8.8038    2.7134   57.8990 H       1  ZINC000001174632    0.1300
     35 H35        -9.7970    3.5677   59.9801 H       1  ZINC000001174632    0.1300
     36 H36       -10.7490    2.0172   61.6303 H       1  ZINC000001174632    0.1300
     37 H37       -10.6112   -1.5541   61.3768 H       1  ZINC000001174632    0.4300
     38 H38       -13.9854   -2.7926   62.2462 H       1  ZINC000001174632    0.1300
     39 H39       -15.3072   -3.8335   60.4527 H       1  ZINC000001174632    0.1300
     40 H40       -17.8348   -3.0340   59.2889 H       1  ZINC000001174632    0.0600
     41 H41       -17.8097   -1.5058   58.3765 H       1  ZINC000001174632    0.0600
     42 H42       -17.9705   -3.0547   57.5143 H       1  ZINC000001174632    0.1000
     43 H43       -15.2456   -0.1641   58.2611 H       1  ZINC000001174632    0.1300
     44 H44       -13.9300    0.8908   60.0510 H       1  ZINC000001174632    0.1300
     45 H45       -13.2418    1.7646   66.1169 H       1  ZINC000001174632    0.1400
     46 H46       -11.0204    2.3830   67.0037 H       1  ZINC000001174632    0.1400
     47 H47        -8.9907    1.8351   65.7398 H       1  ZINC000001174632    0.1400
     48 H48        -9.1502    0.6612   63.5756 H       1  ZINC000001174632    0.1300
@<TRIPOS>BOND
     1     1     2    1
     2     1    30    1
     3     1    31    1
     4     1    32    1
     5     2     3    1
     6     3     4    2
     7     3     5    1
     8     5    10   ar
     9     5     6   ar
    10     6     7   ar
    11     6    33    1
    12     7     8   ar
    13     7    34    1
    14     8     9   ar
    15     8    35    1
    16     9    10   ar
    17     9    36    1
    18    10    11    1
    19    11    12    1
    20    11    37    1
    21    12    29    1
    22    12    13    2
    23    13    14    1
    24    13    22    1
    25    14    21   ar
    26    14    15   ar
    27    15    16   ar
    28    15    38    1
    29    16    17   ar
    30    16    39    1
    31    17    18    1
    32    17    20   ar
    33    18    19    1
    34    19    40    1
    35    19    41    1
    36    19    42    1
    37    20    21   ar
    38    20    43    1
    39    21    44    1
    40    22    23    2
    41    22    24    1
    42    24    29   ar
    43    24    25   ar
    44    25    26   ar
    45    25    45    1
    46    26    27   ar
    47    26    46    1
    48    27    28   ar
    49    27    47    1
    50    28    29   ar
    51    28    48    1
@<TRIPOS>SUBSTRUCTURE
     1 ZINC000001174632        1 TEMP              0 ****  ****    0 ROOT


##########                                Name:    ZINC000195331548
##########                DOCK_Rotatable_Bonds:                   7
##########                         Heavy_Atoms:                  26
##########                    Molecular_Weight:             378.539
##########                DOCK_Rotatable_Bonds:                   7
##########                       Formal_Charge:          -0.0100004
##########                     HBond_Acceptors:                   7
##########                        HBond_Donors:                   2
##########                         Heavy_Atoms:                  26
##########                          Grid_Score:          -34.101082
##########                     Grid_vdw_energy:          -33.905361
##########                      Grid_es_energy:           -0.195722
##########           Internal_energy_repulsive:           29.696690

@<TRIPOS>MOLECULE
ZINC000195331548
 56 58 1 0 0
SMALL
USER_CHARGES


@<TRIPOS>ATOM
      1 C1         -7.5952   -0.9283   51.8761 C.3     1  ZINC000195331548   -0.0800
      2 C2         -9.0423   -0.6601   52.2001 C.2     1  ZINC000195331548    0.0700
      3 C3         -9.4902    0.5450   52.5651 C.2     1  ZINC000195331548   -0.2600
      4 S4        -11.2258    0.4178   52.8405 S.3     1  ZINC000195331548    0.1100
      5 C5        -11.1753   -1.2449   52.4455 C.2     1  ZINC000195331548    0.0600
      6 C6        -12.3672   -2.1671   52.4413 C.3     1  ZINC000195331548   -0.0100
      7 H7        -12.3152   -2.8259   51.5744 H       1  ZINC000195331548    0.1100
      8 C8        -13.6538   -1.3393   52.3780 C.3     1  ZINC000195331548   -0.1200
      9 C9        -14.8602   -2.2805   52.4347 C.3     1  ZINC000195331548   -0.1100
     10 C10       -14.7894   -3.1161   53.7148 C.3     1  ZINC000195331548    0.0500
     11 N11       -13.5413   -3.8899   53.7273 N.3     1  ZINC000195331548   -0.5200
     12 C12       -13.5026   -4.8080   54.8735 C.3     1  ZINC000195331548    0.0400
     13 C13       -13.5610   -4.0156   56.1539 C.2     1  ZINC000195331548    0.5100
     14 O14       -14.6327   -3.7550   56.6572 O.2     1  ZINC000195331548   -0.4400
     15 N15       -12.4217   -3.5966   56.7396 N.am    1  ZINC000195331548   -0.7000
     16 C16       -12.4739   -2.8865   57.8839 C.2     1  ZINC000195331548    0.6900
     17 O17       -13.5485   -2.6226   58.3870 O.2     1  ZINC000195331548   -0.5300
     18 N18       -11.3346   -2.4688   58.4705 N.am    1  ZINC000195331548   -0.7300
     19 C19       -11.3914   -1.6984   59.7153 C.3     1  ZINC000195331548    0.1700
     20 H20       -12.1282   -2.1428   60.3843 H       1  ZINC000195331548    0.0900
     21 C21       -11.7905   -0.2547   59.4038 C.3     1  ZINC000195331548   -0.1300
     22 C22       -10.7562    0.3691   58.4646 C.3     1  ZINC000195331548   -0.1200
     23 C23        -9.3819    0.3536   59.1370 C.3     1  ZINC000195331548   -0.1200
     24 C24        -8.9827   -1.0901   59.4486 C.3     1  ZINC000195331548   -0.1100
     25 C25       -10.0171   -1.7139   60.3877 C.3     1  ZINC000195331548   -0.1000
     26 H26       -10.0593   -1.1407   61.3138 H       1  ZINC000195331548    0.0900
     27 C27        -9.6180   -3.1578   60.6991 C.3     1  ZINC000195331548   -0.1500
     28 C28       -12.3687   -3.0061   53.7212 C.3     1  ZINC000195331548    0.0600
     29 N29        -9.9699   -1.5946   52.1464 N.2     1  ZINC000195331548   -0.4700
     30 H30        -7.4236   -0.7601   50.8130 H       1  ZINC000195331548    0.0800
     31 H31        -6.9624   -0.2571   52.4569 H       1  ZINC000195331548    0.0800
     32 H32        -7.3527   -1.9617   52.1243 H       1  ZINC000195331548    0.0800
     33 H33        -8.8941    1.4396   52.6692 H       1  ZINC000195331548    0.1800
     34 H34       -13.6872   -0.6528   53.2240 H       1  ZINC000195331548    0.0600
     35 H35       -13.6765   -0.7721   51.4475 H       1  ZINC000195331548    0.0700
     36 H36       -15.7793   -1.6945   52.4329 H       1  ZINC000195331548    0.0800
     37 H37       -14.8475   -2.9411   51.5677 H       1  ZINC000195331548    0.0800
     38 H38       -15.6394   -3.7975   53.7512 H       1  ZINC000195331548    0.0800
     39 H39       -14.8160   -2.4558   54.5815 H       1  ZINC000195331548    0.0400
     40 H40       -12.5785   -5.3854   54.8453 H       1  ZINC000195331548    0.1200
     41 H41       -14.3557   -5.4848   54.8259 H       1  ZINC000195331548    0.0700
     42 H42       -11.5643   -3.8061   56.3375 H       1  ZINC000195331548    0.4100
     43 H43       -10.4771   -2.6783   58.0684 H       1  ZINC000195331548    0.4000
     44 H44       -11.8327    0.3185   60.3300 H       1  ZINC000195331548    0.0700
     45 H45       -12.7696   -0.2436   58.9248 H       1  ZINC000195331548    0.0700
     46 H46       -11.0405    1.3978   58.2428 H       1  ZINC000195331548    0.0600
     47 H47       -10.7140   -0.2040   57.5385 H       1  ZINC000195331548    0.0600
     48 H48        -8.6451    0.7980   58.4680 H       1  ZINC000195331548    0.0600
     49 H49        -9.4241    0.9268   60.0632 H       1  ZINC000195331548    0.0600
     50 H50        -8.9406   -1.6633   58.5223 H       1  ZINC000195331548    0.0600
     51 H51        -8.0038   -1.1012   59.9276 H       1  ZINC000195331548    0.0700
     52 H52        -9.5758   -3.7310   59.7730 H       1  ZINC000195331548    0.0500
     53 H53        -8.6389   -3.1688   61.1782 H       1  ZINC000195331548    0.0600
     54 H54       -10.3549   -3.6022   61.3682 H       1  ZINC000195331548    0.0600
     55 H55       -12.4067   -2.3462   54.5880 H       1  ZINC000195331548    0.0400
     56 H56       -11.4605   -3.6074   53.7623 H       1  ZINC000195331548    0.0900
@<TRIPOS>BOND
     1     1     2    1
     2     1    30    1
     3     1    31    1
     4     1    32    1
     5     2    29    1
     6     2     3    2
     7     3     4    1
     8     3    33    1
     9     4     5    1
    10     5     6    1
    11     5    29    2
    12     6     7    1
    13     6    28    1
    14     6     8    1
    15     8     9    1
    16     8    34    1
    17     8    35    1
    18     9    10    1
    19     9    36    1
    20     9    37    1
    21    10    11    1
    22    10    38    1
    23    10    39    1
    24    11    12    1
    25    11    28    1
    26    12    13    1
    27    12    40    1
    28    12    41    1
    29    13    14    2
    30    13    15   am
    31    15    16   am
    32    15    42    1
    33    16    17    2
    34    16    18   am
    35    18    19    1
    36    18    43    1
    37    19    20    1
    38    19    25    1
    39    19    21    1
    40    21    22    1
    41    21    44    1
    42    21    45    1
    43    22    23    1
    44    22    46    1
    45    22    47    1
    46    23    24    1
    47    23    48    1
    48    23    49    1
    49    24    25    1
    50    24    50    1
    51    24    51    1
    52    25    26    1
    53    25    27    1
    54    27    52    1
    55    27    53    1
    56    27    54    1
    57    28    55    1
    58    28    56    1
@<TRIPOS>SUBSTRUCTURE
     1 ZINC000195331548        1 TEMP              0 ****  ****    0 ROOT


##########                                Name:    ZINC000787750060
##########                DOCK_Rotatable_Bonds:                   6
##########                         Heavy_Atoms:                  24
##########                    Molecular_Weight:             347.438
##########                DOCK_Rotatable_Bonds:                   6
##########                       Formal_Charge:           0.0200003
##########                     HBond_Acceptors:                   7
##########                        HBond_Donors:                   2
##########                         Heavy_Atoms:                  24
##########                          Grid_Score:          -34.094173
##########                     Grid_vdw_energy:          -33.932358
##########                      Grid_es_energy:           -0.161815
##########           Internal_energy_repulsive:            8.362219

@<TRIPOS>MOLECULE
ZINC000787750060
 45 47 1 0 0
SMALL
USER_CHARGES


@<TRIPOS>ATOM
      1 C1        -11.9090    1.9271   64.9719 C.3     1  ZINC000787750060   -0.1200
      2 C2        -11.2625    1.0162   63.9602 C.ar    1  ZINC000787750060   -0.0400
      3 C3        -12.0104    0.5161   62.9071 C.ar    1  ZINC000787750060   -0.1300
      4 C4        -11.4296   -0.3178   61.9761 C.ar    1  ZINC000787750060   -0.0700
      5 C5        -10.0807   -0.6606   62.0937 C.ar    1  ZINC000787750060   -0.1700
      6 C6         -9.4524   -1.5524   61.1003 C.2     1  ZINC000787750060    0.5600
      7 O7         -8.5399   -1.1444   60.4081 O.2     1  ZINC000787750060   -0.5200
      8 N8         -9.8901   -2.8194   60.9602 N.am    1  ZINC000787750060   -0.7300
      9 C9         -9.2674   -3.7044   59.9727 C.3     1  ZINC000787750060    0.2100
     10 C10        -9.9492   -3.5287   58.6402 C.2     1  ZINC000787750060   -0.2800
     11 C11       -10.3278   -2.3694   58.1015 C.2     1  ZINC000787750060    0.0900
     12 N12       -10.9079   -2.4762   56.9192 N.2     1  ZINC000787750060   -0.5200
     13 C13       -11.0362   -3.6726   56.4353 C.2     1  ZINC000787750060    0.2300
     14 N14       -11.6164   -3.9770   55.2138 N.3     1  ZINC000787750060   -0.4500
     15 C15       -11.4056   -2.8913   54.2453 C.3     1  ZINC000787750060    0.0200
     16 C16       -12.0086   -3.2935   52.8968 C.3     1  ZINC000787750060    0.0600
     17 O17       -13.3943   -3.6008   53.0725 O.3     1  ZINC000787750060   -0.3800
     18 C18       -13.6361   -4.6544   54.0088 C.3     1  ZINC000787750060    0.0600
     19 C19       -13.0495   -4.2660   55.3686 C.3     1  ZINC000787750060    0.0300
     20 S20       -10.3778   -4.8187   57.5197 S.3     1  ZINC000787750060    0.1700
     21 C21        -9.3272   -0.1521   63.1607 C.ar    1  ZINC000787750060    0.1700
     22 O22        -8.0162   -0.4780   63.2854 O.3     1  ZINC000787750060   -0.4700
     23 C23        -9.9266    0.6894   64.0855 C.ar    1  ZINC000787750060   -0.1200
     24 C24        -9.1220    1.2395   65.2349 C.3     1  ZINC000787750060   -0.1200
     25 H25       -11.8118    2.9619   64.6435 H       1  ZINC000787750060    0.0800
     26 H26       -12.9649    1.6737   65.0667 H       1  ZINC000787750060    0.0700
     27 H27       -11.4178    1.8047   65.9372 H       1  ZINC000787750060    0.0800
     28 H28       -13.0535    0.7806   62.8152 H       1  ZINC000787750060    0.1300
     29 H29       -12.0167   -0.7059   61.1569 H       1  ZINC000787750060    0.1300
     30 H30       -10.6174   -3.1453   61.5132 H       1  ZINC000787750060    0.4000
     31 H31        -8.2109   -3.4545   59.8759 H       1  ZINC000787750060    0.0900
     32 H32        -9.3675   -4.7397   60.2982 H       1  ZINC000787750060    0.0800
     33 H33       -10.1730   -1.4197   58.5919 H       1  ZINC000787750060    0.1800
     34 H34       -11.8905   -1.9837   54.6047 H       1  ZINC000787750060    0.0600
     35 H35       -10.3371   -2.7114   54.1270 H       1  ZINC000787750060    0.1000
     36 H36       -11.9053   -2.4689   52.1914 H       1  ZINC000787750060    0.1100
     37 H37       -11.4874   -4.1700   52.5118 H       1  ZINC000787750060    0.0700
     38 H38       -14.7098   -4.8141   54.1079 H       1  ZINC000787750060    0.1100
     39 H39       -13.1622   -5.5705   53.6563 H       1  ZINC000787750060    0.0600
     40 H40       -13.1810   -5.0897   56.0703 H       1  ZINC000787750060    0.1000
     41 H41       -13.5607   -3.3804   55.7460 H       1  ZINC000787750060    0.0700
     42 H42        -7.6413   -0.9059   62.5033 H       1  ZINC000787750060    0.4000
     43 H43        -8.6677    2.1856   64.9404 H       1  ZINC000787750060    0.0700
     44 H44        -9.7760    1.4015   66.0916 H       1  ZINC000787750060    0.0700
     45 H45        -8.3402    0.5292   65.5039 H       1  ZINC000787750060    0.0800
@<TRIPOS>BOND
     1     1     2    1
     2     1    25    1
     3     1    26    1
     4     1    27    1
     5     2    23   ar
     6     2     3   ar
     7     3     4   ar
     8     3    28    1
     9     4     5   ar
    10     4    29    1
    11     5     6    1
    12     5    21   ar
    13     6     7    2
    14     6     8   am
    15     8     9    1
    16     8    30    1
    17     9    10    1
    18     9    31    1
    19     9    32    1
    20    10    20    1
    21    10    11    2
    22    11    12    1
    23    11    33    1
    24    12    13    2
    25    13    14    1
    26    13    20    1
    27    14    19    1
    28    14    15    1
    29    15    16    1
    30    15    34    1
    31    15    35    1
    32    16    17    1
    33    16    36    1
    34    16    37    1
    35    17    18    1
    36    18    19    1
    37    18    38    1
    38    18    39    1
    39    19    40    1
    40    19    41    1
    41    21    22    1
    42    21    23   ar
    43    22    42    1
    44    23    24    1
    45    24    43    1
    46    24    44    1
    47    24    45    1
@<TRIPOS>SUBSTRUCTURE
     1 ZINC000787750060        1 TEMP              0 ****  ****    0 ROOT


##########                                Name:    ZINC000518242403
##########                DOCK_Rotatable_Bonds:                   6
##########                         Heavy_Atoms:                  27
##########                    Molecular_Weight:             370.405
##########                DOCK_Rotatable_Bonds:                   6
##########                       Formal_Charge:          -0.0200004
##########                     HBond_Acceptors:                   7
##########                        HBond_Donors:                   1
##########                         Heavy_Atoms:                  27
##########                          Grid_Score:          -34.093929
##########                     Grid_vdw_energy:          -32.756844
##########                      Grid_es_energy:           -1.337086
##########           Internal_energy_repulsive:           37.907932

@<TRIPOS>MOLECULE
ZINC000518242403
 49 52 1 0 0
SMALL
USER_CHARGES


@<TRIPOS>ATOM
      1 C1        -16.0262   -1.8618   58.2973 C.3     1  ZINC000518242403   -0.1800
      2 C2        -15.4588   -3.1356   58.9267 C.3     1  ZINC000518242403    0.1000
      3 N3        -14.1728   -3.4573   58.3033 N.am    1  ZINC000518242403   -0.6200
      4 C4        -14.0078   -4.7158   57.5716 C.3     1  ZINC000518242403    0.1500
      5 C5        -13.9594   -4.4298   56.0694 C.3     1  ZINC000518242403    0.0300
      6 H6        -14.3295   -5.2944   55.5185 H       1  ZINC000518242403    0.0900
      7 C7        -14.8236   -3.2029   55.7481 C.3     1  ZINC000518242403    0.0300
      8 O8        -14.7450   -2.9555   54.3401 O.3     1  ZINC000518242403   -0.3000
      9 C9        -13.5041   -2.9867   53.7821 C.ar    1  ZINC000518242403    0.0500
     10 C10       -13.3037   -2.4134   52.5355 C.ar    1  ZINC000518242403   -0.1100
     11 C11       -12.0496   -2.4400   51.9545 C.ar    1  ZINC000518242403   -0.1200
     12 C12       -10.9923   -3.0378   52.6141 C.ar    1  ZINC000518242403   -0.1200
     13 C13       -11.1850   -3.6098   53.8578 C.ar    1  ZINC000518242403   -0.1100
     14 C14       -12.4401   -3.5856   54.4468 C.ar    1  ZINC000518242403    0.0500
     15 O15       -12.6125   -4.1464   55.6750 O.3     1  ZINC000518242403   -0.3000
     16 C16       -13.1414   -2.5955   58.4027 C.2     1  ZINC000518242403    0.7100
     17 O17       -13.2779   -1.5515   59.0112 O.2     1  ZINC000518242403   -0.5700
     18 N18       -11.9587   -2.8906   57.8277 N.am    1  ZINC000518242403   -0.6800
     19 C19       -10.8863   -1.9944   57.9311 C.ar    1  ZINC000518242403    0.1700
     20 C20       -10.9017   -0.8077   57.2115 C.ar    1  ZINC000518242403   -0.1000
     21 C21        -9.8418    0.0778   57.3144 C.ar    1  ZINC000518242403    0.0500
     22 C22        -8.7620   -0.2249   58.1404 C.ar    1  ZINC000518242403    0.0200
     23 C23        -8.7502   -1.4110   58.8564 C.ar    1  ZINC000518242403   -0.0800
     24 C24        -9.8109   -2.2910   58.7577 C.ar    1  ZINC000518242403   -0.1000
     25 C25        -9.7946   -3.5802   59.5381 C.3     1  ZINC000518242403   -0.1100
     26 O26        -7.8583    0.7969   58.0686 O.3     1  ZINC000518242403   -0.3100
     27 C27        -8.2049    1.5336   56.8810 C.3     1  ZINC000518242403    0.2100
     28 O28        -9.6151    1.2884   56.7257 O.3     1  ZINC000518242403   -0.3100
     29 H29       -15.3301   -1.0378   58.4541 H       1  ZINC000518242403    0.0600
     30 H30       -16.1697   -2.0176   57.2281 H       1  ZINC000518242403    0.0600
     31 H31       -16.9831   -1.6223   58.7612 H       1  ZINC000518242403    0.0700
     32 H32       -15.3153   -2.9796   59.9960 H       1  ZINC000518242403    0.1000
     33 H33       -16.1549   -3.9595   58.7700 H       1  ZINC000518242403    0.0700
     34 H34       -13.0794   -5.1964   57.8801 H       1  ZINC000518242403    0.1100
     35 H35       -14.8480   -5.3753   57.7890 H       1  ZINC000518242403    0.0900
     36 H36       -15.8583   -3.3981   56.0300 H       1  ZINC000518242403    0.1300
     37 H37       -14.4502   -2.3370   56.2948 H       1  ZINC000518242403    0.0800
     38 H38       -14.1283   -1.9458   52.0180 H       1  ZINC000518242403    0.1300
     39 H39       -11.8957   -1.9927   50.9837 H       1  ZINC000518242403    0.1300
     40 H40       -10.0141   -3.0582   52.1571 H       1  ZINC000518242403    0.1300
     41 H41       -10.3572   -4.0763   54.3711 H       1  ZINC000518242403    0.1300
     42 H42       -11.8499   -3.7233   57.3423 H       1  ZINC000518242403    0.4100
     43 H43       -11.7398   -0.5750   56.5714 H       1  ZINC000518242403    0.1500
     44 H44        -7.9129   -1.6457   59.4969 H       1  ZINC000518242403    0.1400
     45 H45       -10.2543   -3.4204   60.5133 H       1  ZINC000518242403    0.0800
     46 H46       -10.3530   -4.3416   58.9935 H       1  ZINC000518242403    0.0700
     47 H47        -8.7647   -3.9109   59.6716 H       1  ZINC000518242403    0.0800
     48 H48        -8.0142    2.5976   57.0210 H       1  ZINC000518242403    0.1300
     49 H49        -7.6532    1.1547   56.0207 H       1  ZINC000518242403    0.0900
@<TRIPOS>BOND
     1     1     2    1
     2     1    29    1
     3     1    30    1
     4     1    31    1
     5     2     3    1
     6     2    32    1
     7     2    33    1
     8     3     4    1
     9     3    16   am
    10     4     5    1
    11     4    34    1
    12     4    35    1
    13     5     6    1
    14     5    15    1
    15     5     7    1
    16     7     8    1
    17     7    36    1
    18     7    37    1
    19     8     9    1
    20     9    14   ar
    21     9    10   ar
    22    10    11   ar
    23    10    38    1
    24    11    12   ar
    25    11    39    1
    26    12    13   ar
    27    12    40    1
    28    13    14   ar
    29    13    41    1
    30    14    15    1
    31    16    17    2
    32    16    18   am
    33    18    19    1
    34    18    42    1
    35    19    24   ar
    36    19    20   ar
    37    20    21   ar
    38    20    43    1
    39    21    28    1
    40    21    22   ar
    41    22    23   ar
    42    22    26    1
    43    23    24   ar
    44    23    44    1
    45    24    25    1
    46    25    45    1
    47    25    46    1
    48    25    47    1
    49    26    27    1
    50    27    28    1
    51    27    48    1
    52    27    49    1
@<TRIPOS>SUBSTRUCTURE
     1 ZINC000518242403        1 TEMP              0 ****  ****    0 ROOT


##########                                Name:    ZINC000174621331
##########                DOCK_Rotatable_Bonds:                   8
##########                         Heavy_Atoms:                  25
##########                    Molecular_Weight:             366.438
##########                DOCK_Rotatable_Bonds:                   8
##########                       Formal_Charge:        -5.96046e-08
##########                     HBond_Acceptors:                   8
##########                        HBond_Donors:                   3
##########                         Heavy_Atoms:                  25
##########                          Grid_Score:          -34.084423
##########                     Grid_vdw_energy:          -34.280678
##########                      Grid_es_energy:            0.196256
##########           Internal_energy_repulsive:           14.307668

@<TRIPOS>MOLECULE
ZINC000174621331
 47 48 1 0 0
SMALL
USER_CHARGES


@<TRIPOS>ATOM
      1 C1        -11.6070   -3.9494   52.9957 C.3     1  ZINC000174621331    0.0300
      2 O2        -10.9010   -2.8001   53.4676 O.3     1  ZINC000174621331   -0.3800
      3 C3        -11.2258   -1.5933   52.7746 C.3     1  ZINC000174621331    0.0500
      4 C4        -10.3824   -0.4437   53.3296 C.3     1  ZINC000174621331    0.2400
      5 H5        -10.9072    0.4992   53.1757 H       1  ZINC000174621331    0.1300
      6 N6        -10.1586   -0.6498   54.7626 N.am    1  ZINC000174621331   -0.7200
      7 C7        -10.5109    0.3069   55.6441 C.2     1  ZINC000174621331    0.5600
      8 O8        -11.0130    1.3413   55.2500 O.2     1  ZINC000174621331   -0.5300
      9 C9        -10.2867    0.0982   57.0905 C.ar    1  ZINC000174621331   -0.1600
     10 C10       -10.0679    1.1909   57.9306 C.ar    1  ZINC000174621331   -0.0200
     11 C11        -9.8597    0.9893   59.2796 C.ar    1  ZINC000174621331   -0.1100
     12 C12        -9.6233    2.1680   60.1883 C.3     1  ZINC000174621331   -0.1200
     13 C13        -9.8680   -0.2925   59.7999 C.ar    1  ZINC000174621331    0.0400
     14 C14        -9.6404   -0.5052   61.2743 C.3     1  ZINC000174621331   -0.1600
     15 C15       -10.0847   -1.3803   58.9724 C.ar    1  ZINC000174621331   -0.6800
     16 S16       -10.0938   -3.0087   59.6454 S.o2    1  ZINC000174621331    2.7000
     17 N17       -10.6424   -4.0262   58.4596 N.am    1  ZINC000174621331   -1.2500
     18 O18        -8.7351   -3.3556   59.8750 O.2     1  ZINC000174621331   -0.9500
     19 O19       -11.0809   -3.0148   60.6676 O.2     1  ZINC000174621331   -0.9600
     20 C20       -10.2985   -1.1922   57.6227 C.ar    1  ZINC000174621331    0.0400
     21 C21        -9.0563   -0.4030   52.6148 C.2     1  ZINC000174621331   -0.0200
     22 C22        -8.4358   -1.4532   52.0477 C.2     1  ZINC000174621331   -0.1900
     23 C23        -7.2290   -0.9663   51.4951 C.2     1  ZINC000174621331   -0.2100
     24 C24        -7.1842    0.3523   51.7575 C.2     1  ZINC000174621331    0.0000
     25 C25        -6.0773    1.2934   51.3573 C.3     1  ZINC000174621331   -0.0800
     26 O26        -8.2964    0.6890   52.4308 O.3     1  ZINC000174621331   -0.1600
     27 H27       -12.6790   -3.7903   53.1119 H       1  ZINC000174621331    0.0400
     28 H28       -11.3757   -4.1109   51.9427 H       1  ZINC000174621331    0.0400
     29 H29       -11.3047   -4.8236   53.5723 H       1  ZINC000174621331    0.0900
     30 H30       -11.0170   -1.7170   51.7120 H       1  ZINC000174621331    0.0700
     31 H31       -12.2832   -1.3680   52.9133 H       1  ZINC000174621331    0.0700
     32 H32        -9.7568   -1.4748   55.0771 H       1  ZINC000174621331    0.4100
     33 H33       -10.0612    2.1921   57.5257 H       1  ZINC000174621331    0.1400
     34 H34       -10.5777    2.5262   60.5745 H       1  ZINC000174621331    0.0800
     35 H35        -8.9861    1.8644   61.0190 H       1  ZINC000174621331    0.0800
     36 H36        -9.1353    2.9660   59.6288 H       1  ZINC000174621331    0.0700
     37 H37       -10.5969   -0.4822   61.7966 H       1  ZINC000174621331    0.1100
     38 H38        -9.1631   -1.4723   61.4325 H       1  ZINC000174621331    0.0700
     39 H39        -8.9966    0.2852   61.6602 H       1  ZINC000174621331    0.0900
     40 H40       -10.7202   -4.9771   58.6342 H       1  ZINC000174621331    0.4200
     41 H41       -10.8858   -3.6712   57.5903 H       1  ZINC000174621331    0.4200
     42 H42       -10.4679   -2.0420   56.9780 H       1  ZINC000174621331    0.1600
     43 H43        -8.7911   -2.4727   52.0204 H       1  ZINC000174621331    0.1500
     44 H44        -6.4855   -1.5426   50.9645 H       1  ZINC000174621331    0.1500
     45 H45        -6.2945    1.7130   50.3751 H       1  ZINC000174621331    0.0800
     46 H46        -6.0032    2.0987   52.0881 H       1  ZINC000174621331    0.0800
     47 H47        -5.1336    0.7492   51.3194 H       1  ZINC000174621331    0.0900
@<TRIPOS>BOND
     1     1     2    1
     2     1    27    1
     3     1    28    1
     4     1    29    1
     5     2     3    1
     6     3     4    1
     7     3    30    1
     8     3    31    1
     9     4     5    1
    10     4     6    1
    11     4    21    1
    12     6     7   am
    13     6    32    1
    14     7     8    2
    15     7     9    1
    16     9    20   ar
    17     9    10   ar
    18    10    11   ar
    19    10    33    1
    20    11    12    1
    21    11    13   ar
    22    12    34    1
    23    12    35    1
    24    12    36    1
    25    13    14    1
    26    13    15   ar
    27    14    37    1
    28    14    38    1
    29    14    39    1
    30    15    16    1
    31    15    20   ar
    32    16    17   am
    33    16    18    2
    34    16    19    2
    35    17    40    1
    36    17    41    1
    37    20    42    1
    38    21    26    1
    39    21    22    2
    40    22    23    1
    41    22    43    1
    42    23    24    2
    43    23    44    1
    44    24    25    1
    45    24    26    1
    46    25    45    1
    47    25    46    1
    48    25    47    1
@<TRIPOS>SUBSTRUCTURE
     1 ZINC000174621331        1 TEMP              0 ****  ****    0 ROOT


##########                                Name:    ZINC000771225867
##########                DOCK_Rotatable_Bonds:                   9
##########                         Heavy_Atoms:                  23
##########                    Molecular_Weight:             355.802
##########                DOCK_Rotatable_Bonds:                   9
##########                       Formal_Charge:        -3.12924e-07
##########                     HBond_Acceptors:                   9
##########                        HBond_Donors:                   3
##########                         Heavy_Atoms:                  23
##########                          Grid_Score:          -34.054794
##########                     Grid_vdw_energy:          -31.821871
##########                      Grid_es_energy:           -2.232924
##########           Internal_energy_repulsive:           12.575251

@<TRIPOS>MOLECULE
ZINC000771225867
 37 38 1 0 0
SMALL
USER_CHARGES


@<TRIPOS>ATOM
      1 C1        -13.6295   -1.2781   50.5987 C.3     1  ZINC000771225867    0.0400
      2 O2        -12.9740   -1.7473   51.7787 O.3     1  ZINC000771225867   -0.3600
      3 C3        -13.6581   -2.6121   52.5570 C.2     1  ZINC000771225867    0.5500
      4 O4        -14.8022   -2.9136   52.2717 O.2     1  ZINC000771225867   -0.4900
      5 C5        -13.0450   -3.1683   53.7050 C.2     1  ZINC000771225867   -0.3400
      6 C6        -11.7295   -3.0320   54.0643 C.2     1  ZINC000771225867    0.2700
      7 Cl7       -10.5827   -2.1238   53.1296 Cl      1  ZINC000771225867    0.0400
      8 N8        -11.4158   -3.6480   55.1760 N.2     1  ZINC000771225867   -0.5500
      9 C9        -12.3653   -4.2968   55.7874 C.2     1  ZINC000771225867    0.3400
     10 N10       -12.2063   -4.9957   56.9642 N.pl3   1  ZINC000771225867   -0.6700
     11 C11       -10.8838   -5.0898   57.5872 C.3     1  ZINC000771225867    0.1700
     12 C12       -10.6741   -3.9100   58.5012 C.ar    1  ZINC000771225867   -0.0800
     13 C13        -9.4012   -3.5914   58.9366 C.ar    1  ZINC000771225867   -0.1300
     14 C14        -9.2054   -2.5095   59.7753 C.ar    1  ZINC000771225867   -0.0800
     15 C15       -10.2817   -1.7443   60.1801 C.ar    1  ZINC000771225867   -0.2000
     16 C16       -11.5603   -2.0620   59.7445 C.ar    1  ZINC000771225867    0.1300
     17 O17       -12.6208   -1.3104   60.1411 O.3     1  ZINC000771225867   -0.2900
     18 C18       -13.4514   -1.8523   61.1698 C.3     1  ZINC000771225867    0.0400
     19 C19       -14.7942   -2.2171   60.5913 C.2     1  ZINC000771225867    0.5200
     20 N20       -15.0474   -3.4894   60.2256 N.am    1  ZINC000771225867   -0.8500
     21 O21       -15.6472   -1.3658   60.4547 O.2     1  ZINC000771225867   -0.5200
     22 C22       -11.7533   -3.1444   58.8988 C.ar    1  ZINC000771225867   -0.1200
     23 S23       -13.8378   -4.1534   54.9318 S.3     1  ZINC000771225867    0.2200
     24 H24       -13.8693   -2.1246   49.9553 H       1  ZINC000771225867    0.0600
     25 H25       -14.5480   -0.7601   50.8749 H       1  ZINC000771225867    0.0600
     26 H26       -12.9714   -0.5917   50.0660 H       1  ZINC000771225867    0.1000
     27 H27       -12.9701   -5.4255   57.3800 H       1  ZINC000771225867    0.4200
     28 H28       -10.8187   -6.0124   58.1642 H       1  ZINC000771225867    0.0900
     29 H29       -10.1166   -5.0905   56.8131 H       1  ZINC000771225867    0.0900
     30 H30        -8.5585   -4.1887   58.6215 H       1  ZINC000771225867    0.1300
     31 H31        -8.2102   -2.2628   60.1143 H       1  ZINC000771225867    0.1300
     32 H32       -10.1283   -0.8996   60.8354 H       1  ZINC000771225867    0.1300
     33 H33       -12.9806   -2.7432   61.5853 H       1  ZINC000771225867    0.1000
     34 H34       -13.5846   -1.1107   61.9576 H       1  ZINC000771225867    0.1000
     35 H35       -15.9121   -3.7244   59.8543 H       1  ZINC000771225867    0.4000
     36 H36       -14.3648   -4.1700   60.3338 H       1  ZINC000771225867    0.4100
     37 H37       -12.7475   -3.3937   58.5583 H       1  ZINC000771225867    0.1400
@<TRIPOS>BOND
     1     1     2    1
     2     1    24    1
     3     1    25    1
     4     1    26    1
     5     2     3    1
     6     3     4    2
     7     3     5    1
     8     5    23    1
     9     5     6    2
    10     6     7    1
    11     6     8    1
    12     8     9    2
    13     9    10    1
    14     9    23    1
    15    10    11    1
    16    10    27    1
    17    11    12    1
    18    11    28    1
    19    11    29    1
    20    12    22   ar
    21    12    13   ar
    22    13    14   ar
    23    13    30    1
    24    14    15   ar
    25    14    31    1
    26    15    16   ar
    27    15    32    1
    28    16    17    1
    29    16    22   ar
    30    17    18    1
    31    18    19    1
    32    18    33    1
    33    18    34    1
    34    19    20   am
    35    19    21    2
    36    20    35    1
    37    20    36    1
    38    22    37    1
@<TRIPOS>SUBSTRUCTURE
     1 ZINC000771225867        1 TEMP              0 ****  ****    0 ROOT


##########                                Name:    ZINC000536173632
##########                DOCK_Rotatable_Bonds:                   7
##########                         Heavy_Atoms:                  29
##########                    Molecular_Weight:             407.389
##########                DOCK_Rotatable_Bonds:                   7
##########                       Formal_Charge:        -2.98023e-07
##########                     HBond_Acceptors:                   8
##########                        HBond_Donors:                   0
##########                         Heavy_Atoms:                  29
##########                          Grid_Score:          -34.049980
##########                     Grid_vdw_energy:          -34.493332
##########                      Grid_es_energy:            0.443351
##########           Internal_energy_repulsive:           18.110132

@<TRIPOS>MOLECULE
ZINC000536173632
 49 51 1 0 0
SMALL
USER_CHARGES


@<TRIPOS>ATOM
      1 C1         -8.3284    2.4374   55.2557 C.3     1  ZINC000536173632    0.0400
      2 O2         -9.3975    1.5154   54.9158 O.3     1  ZINC000536173632   -0.3500
      3 C3         -9.1716    0.6670   53.8942 C.2     1  ZINC000536173632    0.5100
      4 O4         -8.1109    0.6969   53.3031 O.2     1  ZINC000536173632   -0.5000
      5 C5        -10.2140   -0.2997   53.4926 C.ar    1  ZINC000536173632   -0.1300
      6 C6         -9.9832   -1.1804   52.4343 C.ar    1  ZINC000536173632   -0.0600
      7 C7        -10.9610   -2.0807   52.0643 C.ar    1  ZINC000536173632   -0.1300
      8 C8        -12.1683   -2.1116   52.7393 C.ar    1  ZINC000536173632   -0.0700
      9 C9        -12.4037   -1.2414   53.7893 C.ar    1  ZINC000536173632   -0.0800
     10 C10       -13.7219   -1.2825   54.5187 C.3     1  ZINC000536173632   -0.1000
     11 C11       -14.2249   -2.7022   54.5674 C.2     1  ZINC000536173632    0.5200
     12 O12       -15.2058   -3.0203   53.9291 O.2     1  ZINC000536173632   -0.5200
     13 N13       -13.5847   -3.6184   55.3205 N.am    1  ZINC000536173632   -0.6200
     14 C14       -14.0570   -5.0107   55.3840 C.3     1  ZINC000536173632    0.0700
     15 C15       -14.1753   -5.4143   56.8582 C.3     1  ZINC000536173632    0.0500
     16 O16       -12.9423   -5.1313   57.5240 O.3     1  ZINC000536173632   -0.3700
     17 C17       -12.5917   -3.7454   57.5423 C.3     1  ZINC000536173632    0.1200
     18 H18       -13.3912   -3.1737   58.0136 H       1  ZINC000536173632    0.0800
     19 C19       -11.3141   -3.5596   58.3197 C.ar    1  ZINC000536173632   -0.0900
     20 C20       -10.2539   -4.4242   58.1236 C.ar    1  ZINC000536173632   -0.0600
     21 C21        -9.0818   -4.2537   58.8368 C.ar    1  ZINC000536173632   -0.1200
     22 C22        -8.9702   -3.2184   59.7456 C.ar    1  ZINC000536173632   -0.0700
     23 C23       -10.0305   -2.3529   59.9411 C.ar    1  ZINC000536173632   -0.1800
     24 C24        -9.9090   -1.2243   60.9324 C.3     1  ZINC000536173632    0.5100
     25 F25        -9.5104   -0.0601   60.2669 F       1  ZINC000536173632   -0.1800
     26 F26       -11.1467   -1.0090   61.5479 F       1  ZINC000536173632   -0.1800
     27 F27        -8.9572   -1.5560   61.9025 F       1  ZINC000536173632   -0.1800
     28 C28       -11.2006   -2.5207   59.2250 C.ar    1  ZINC000536173632   -0.0500
     29 C29       -12.3891   -3.2576   56.0988 C.3     1  ZINC000536173632    0.0900
     30 C30       -11.4325   -0.3406   54.1735 C.ar    1  ZINC000536173632   -0.0400
     31 H31        -7.4377    1.8742   55.5342 H       1  ZINC000536173632    0.0600
     32 H32        -8.1053    3.0681   54.3951 H       1  ZINC000536173632    0.0600
     33 H33        -8.6398    3.0620   56.0930 H       1  ZINC000536173632    0.1000
     34 H34        -9.0414   -1.1568   51.9060 H       1  ZINC000536173632    0.1400
     35 H35       -10.7837   -2.7626   51.2458 H       1  ZINC000536173632    0.1400
     36 H36       -12.9306   -2.8179   52.4452 H       1  ZINC000536173632    0.1300
     37 H37       -13.5870   -0.9097   55.5340 H       1  ZINC000536173632    0.1100
     38 H38       -14.4461   -0.6581   53.9954 H       1  ZINC000536173632    0.1100
     39 H39       -15.0316   -5.0900   54.9024 H       1  ZINC000536173632    0.1000
     40 H40       -13.3440   -5.6635   54.8807 H       1  ZINC000536173632    0.0800
     41 H41       -14.9805   -4.8488   57.3270 H       1  ZINC000536173632    0.0600
     42 H42       -14.3900   -6.4807   56.9275 H       1  ZINC000536173632    0.1100
     43 H43       -10.3410   -5.2332   57.4135 H       1  ZINC000536173632    0.1400
     44 H44        -8.2535   -4.9298   58.6841 H       1  ZINC000536173632    0.1400
     45 H45        -8.0549   -3.0856   60.3033 H       1  ZINC000536173632    0.1400
     46 H46       -12.0289   -1.8446   59.3776 H       1  ZINC000536173632    0.1400
     47 H47       -11.5077   -3.7347   55.6704 H       1  ZINC000536173632    0.0800
     48 H48       -12.2611   -2.1751   56.0916 H       1  ZINC000536173632    0.1100
     49 H49       -11.6173    0.3377   54.9934 H       1  ZINC000536173632    0.1400
@<TRIPOS>BOND
     1     1     2    1
     2     1    31    1
     3     1    32    1
     4     1    33    1
     5     2     3    1
     6     3     4    2
     7     3     5    1
     8     5    30   ar
     9     5     6   ar
    10     6     7   ar
    11     6    34    1
    12     7     8   ar
    13     7    35    1
    14     8     9   ar
    15     8    36    1
    16     9    10    1
    17     9    30   ar
    18    10    11    1
    19    10    37    1
    20    10    38    1
    21    11    12    2
    22    11    13   am
    23    13    29    1
    24    13    14    1
    25    14    15    1
    26    14    39    1
    27    14    40    1
    28    15    16    1
    29    15    41    1
    30    15    42    1
    31    16    17    1
    32    17    18    1
    33    17    19    1
    34    17    29    1
    35    19    28   ar
    36    19    20   ar
    37    20    21   ar
    38    20    43    1
    39    21    22   ar
    40    21    44    1
    41    22    23   ar
    42    22    45    1
    43    23    24    1
    44    23    28   ar
    45    24    25    1
    46    24    26    1
    47    24    27    1
    48    28    46    1
    49    29    47    1
    50    29    48    1
    51    30    49    1
@<TRIPOS>SUBSTRUCTURE
     1 ZINC000536173632        1 TEMP              0 ****  ****    0 ROOT


##########                                Name:    ZINC001707804910
##########                DOCK_Rotatable_Bonds:                   4
##########                         Heavy_Atoms:                  26
##########                    Molecular_Weight:             358.403
##########                DOCK_Rotatable_Bonds:                   4
##########                       Formal_Charge:          -0.0399996
##########                     HBond_Acceptors:                  10
##########                        HBond_Donors:                   0
##########                         Heavy_Atoms:                  26
##########                          Grid_Score:          -34.025890
##########                     Grid_vdw_energy:          -34.007328
##########                      Grid_es_energy:           -0.018561
##########           Internal_energy_repulsive:           13.268256

@<TRIPOS>MOLECULE
ZINC001707804910
 48 51 1 0 0
SMALL
USER_CHARGES


@<TRIPOS>ATOM
      1 C1         -5.6101    3.1380   50.7963 C.3     1  ZINC001707804910   -0.0700
      2 C2         -6.4620    2.0067   51.3114 C.2     1  ZINC001707804910    0.0700
      3 N3         -6.4319    0.7692   50.8876 N.2     1  ZINC001707804910   -0.2800
      4 N4         -7.3723    0.0329   51.6196 N.pl3   1  ZINC001707804910   -0.3700
      5 C5         -7.6605   -1.3949   51.4626 C.3     1  ZINC001707804910    0.0900
      6 C6         -7.9658    0.8710   52.4952 C.2     1  ZINC001707804910    0.0500
      7 C7         -9.0422    0.5058   53.4846 C.3     1  ZINC001707804910    0.1800
      8 N8        -10.3504    0.5684   52.8283 N.pl3   1  ZINC001707804910   -0.4600
      9 C9        -10.9170    1.6532   52.2183 C.2     1  ZINC001707804910    0.1900
     10 C10       -10.3081    3.0260   52.0920 C.3     1  ZINC001707804910   -0.0700
     11 N11       -12.0803    1.2798   51.7659 N.2     1  ZINC001707804910   -0.2800
     12 N12       -12.2858    0.0424   52.0463 N.2     1  ZINC001707804910   -0.3000
     13 C13       -11.2538   -0.4453   52.6936 C.2     1  ZINC001707804910    0.3500
     14 N14       -11.1119   -1.7426   53.1599 N.3     1  ZINC001707804910   -0.4600
     15 C15       -12.1633   -2.6153   52.6177 C.3     1  ZINC001707804910    0.0200
     16 C16       -11.9343   -4.0471   53.1091 C.3     1  ZINC001707804910    0.0700
     17 O17       -11.9072   -4.0562   54.5390 O.3     1  ZINC001707804910   -0.3600
     18 C18       -10.8945   -3.2173   55.1010 C.3     1  ZINC001707804910    0.2000
     19 H19        -9.9134   -3.5623   54.7745 H       1  ZINC001707804910    0.1000
     20 C20       -10.9725   -3.2728   56.6050 C.2     1  ZINC001707804910    0.1600
     21 N21       -12.0588   -3.3696   57.3175 N.2     1  ZINC001707804910   -0.2500
     22 N22       -11.7498   -3.3914   58.5663 N.2     1  ZINC001707804910   -0.2900
     23 C23       -10.4558   -3.3091   58.6929 C.2     1  ZINC001707804910    0.1700
     24 C24        -9.6852   -3.3015   59.9880 C.3     1  ZINC001707804910   -0.0600
     25 O25        -9.9341   -3.2374   57.4568 O.3     1  ZINC001707804910   -0.2200
     26 C26       -11.1129   -1.7772   54.6296 C.3     1  ZINC001707804910    0.0400
     27 C27        -7.4172    2.0968   52.3292 C.2     1  ZINC001707804910   -0.2300
     28 H28        -4.6838    3.1851   51.3688 H       1  ZINC001707804910    0.0800
     29 H29        -5.3791    2.9692   49.7445 H       1  ZINC001707804910    0.0700
     30 H30        -6.1514    4.0781   50.9030 H       1  ZINC001707804910    0.0800
     31 H31        -6.9431   -1.9763   52.0418 H       1  ZINC001707804910    0.0800
     32 H32        -8.6693   -1.6033   51.8191 H       1  ZINC001707804910    0.0900
     33 H33        -7.5836   -1.6674   50.4100 H       1  ZINC001707804910    0.0900
     34 H34        -8.8687   -0.5051   53.8536 H       1  ZINC001707804910    0.1100
     35 H35        -9.0208    1.2060   54.3197 H       1  ZINC001707804910    0.1200
     36 H36        -9.6436    3.0506   51.2284 H       1  ZINC001707804910    0.0900
     37 H37       -11.0997    3.7639   51.9626 H       1  ZINC001707804910    0.1000
     38 H38        -9.7407    3.2562   52.9938 H       1  ZINC001707804910    0.0700
     39 H39       -13.1381   -2.2653   52.9574 H       1  ZINC001707804910    0.0700
     40 H40       -12.1278   -2.5943   51.5284 H       1  ZINC001707804910    0.0900
     41 H41       -12.7434   -4.6867   52.7563 H       1  ZINC001707804910    0.1200
     42 H42       -10.9836   -4.4163   52.7246 H       1  ZINC001707804910    0.0700
     43 H43        -9.4312   -4.3245   60.2657 H       1  ZINC001707804910    0.1000
     44 H44        -8.7710   -2.7212   59.8634 H       1  ZINC001707804910    0.1000
     45 H45       -10.2960   -2.8533   60.7716 H       1  ZINC001707804910    0.1100
     46 H46       -10.3106   -1.1444   55.0092 H       1  ZINC001707804910    0.1000
     47 H47       -12.0708   -1.4138   55.0017 H       1  ZINC001707804910    0.0800
     48 H48        -7.6758    2.9886   52.8807 H       1  ZINC001707804910    0.1500
@<TRIPOS>BOND
     1     1     2    1
     2     1    28    1
     3     1    29    1
     4     1    30    1
     5     2    27    1
     6     2     3    2
     7     3     4    1
     8     4     5    1
     9     4     6    1
    10     5    31    1
    11     5    32    1
    12     5    33    1
    13     6     7    1
    14     6    27    2
    15     7     8    1
    16     7    34    1
    17     7    35    1
    18     8    13    1
    19     8     9    1
    20     9    10    1
    21     9    11    2
    22    10    36    1
    23    10    37    1
    24    10    38    1
    25    11    12    1
    26    12    13    2
    27    13    14    1
    28    14    26    1
    29    14    15    1
    30    15    16    1
    31    15    39    1
    32    15    40    1
    33    16    17    1
    34    16    41    1
    35    16    42    1
    36    17    18    1
    37    18    19    1
    38    18    20    1
    39    18    26    1
    40    20    25    1
    41    20    21    2
    42    21    22    1
    43    22    23    2
    44    23    24    1
    45    23    25    1
    46    24    43    1
    47    24    44    1
    48    24    45    1
    49    26    46    1
    50    26    47    1
    51    27    48    1
@<TRIPOS>SUBSTRUCTURE
     1 ZINC001707804910        1 TEMP              0 ****  ****    0 ROOT


##########                                Name:    ZINC000501032137
##########                DOCK_Rotatable_Bonds:                  10
##########                         Heavy_Atoms:                  25
##########                    Molecular_Weight:             407.307
##########                DOCK_Rotatable_Bonds:                  10
##########                       Formal_Charge:           0.0099998
##########                     HBond_Acceptors:                   5
##########                        HBond_Donors:                   1
##########                         Heavy_Atoms:                  25
##########                          Grid_Score:          -33.991440
##########                     Grid_vdw_energy:          -31.758181
##########                      Grid_es_energy:           -2.233257
##########           Internal_energy_repulsive:           10.863873

@<TRIPOS>MOLECULE
ZINC000501032137
 48 50 1 0 0
SMALL
USER_CHARGES


@<TRIPOS>ATOM
      1 C1        -15.3450   -1.0974   66.3224 C.3     1  ZINC000501032137   -0.1500
      2 C2        -14.9061    0.3387   66.0294 C.3     1  ZINC000501032137   -0.1200
      3 C3        -15.4497    0.7699   64.6658 C.3     1  ZINC000501032137    0.0600
      4 O4        -14.8670   -0.0400   63.6429 O.3     1  ZINC000501032137   -0.3800
      5 C5        -13.6002    0.4315   63.1793 C.3     1  ZINC000501032137    0.0500
      6 C6        -13.1863   -0.3577   61.9355 C.3     1  ZINC000501032137    0.1600
      7 H7        -12.9224   -1.3756   62.2223 H       1  ZINC000501032137    0.1000
      8 C8        -11.9789    0.3172   61.2817 C.3     1  ZINC000501032137   -0.0900
      9 C9        -10.8511   -0.6753   61.1642 C.ar    1  ZINC000501032137   -0.0600
     10 C10        -9.8368   -0.6830   62.1032 C.ar    1  ZINC000501032137   -0.0900
     11 C11        -8.8018   -1.5935   61.9959 C.ar    1  ZINC000501032137   -0.1100
     12 C12        -8.7810   -2.4962   60.9497 C.ar    1  ZINC000501032137   -0.0900
     13 C13        -9.7959   -2.4888   60.0096 C.ar    1  ZINC000501032137   -0.0800
     14 Br14       -9.7679   -3.7237   58.5778 Br      1  ZINC000501032137   -0.0600
     15 C15       -10.8341   -1.5817   60.1205 C.ar    1  ZINC000501032137   -0.0800
     16 N16       -14.3008   -0.3914   60.9853 N.am    1  ZINC000501032137   -0.7100
     17 C17       -14.5216   -1.4954   60.2444 C.2     1  ZINC000501032137    0.6100
     18 O18       -13.7965   -2.4641   60.3658 O.2     1  ZINC000501032137   -0.5200
     19 C19       -15.6420   -1.5287   59.2870 C.2     1  ZINC000501032137   -0.0800
     20 C20       -15.8659   -2.4771   58.3370 C.2     1  ZINC000501032137    0.0800
     21 C21       -15.0160   -3.6913   58.0640 C.3     1  ZINC000501032137   -0.0800
     22 C22       -14.9868   -4.2253   56.6306 C.3     1  ZINC000501032137   -0.1700
     23 C23       -13.7667   -3.4999   57.2017 C.3     1  ZINC000501032137   -0.1500
     24 O24       -16.9881   -2.1253   57.6895 O.3     1  ZINC000501032137   -0.2000
     25 C25       -17.4441   -0.9861   58.2293 C.2     1  ZINC000501032137    0.1800
     26 N26       -16.6503   -0.6201   59.1907 N.2     1  ZINC000501032137   -0.4600
     27 H27       -16.4338   -1.1497   66.3323 H       1  ZINC000501032137    0.0600
     28 H28       -14.9563   -1.7609   65.5500 H       1  ZINC000501032137    0.0600
     29 H29       -14.9577   -1.4046   67.2939 H       1  ZINC000501032137    0.0600
     30 H30       -15.2948    1.0022   66.8019 H       1  ZINC000501032137    0.0700
     31 H31       -13.8174    0.3911   66.0196 H       1  ZINC000501032137    0.0700
     32 H32       -16.5329    0.6494   64.6519 H       1  ZINC000501032137    0.0500
     33 H33       -15.1981    1.8156   64.4886 H       1  ZINC000501032137    0.0500
     34 H34       -13.6755    1.4898   62.9296 H       1  ZINC000501032137    0.0700
     35 H35       -12.8533    0.2950   63.9614 H       1  ZINC000501032137    0.0600
     36 H36       -12.2549    0.6728   60.2890 H       1  ZINC000501032137    0.0900
     37 H37       -11.6586    1.1605   61.8935 H       1  ZINC000501032137    0.0800
     38 H38        -9.8527    0.0224   62.9208 H       1  ZINC000501032137    0.1200
     39 H39        -8.0094   -1.5990   62.7297 H       1  ZINC000501032137    0.1300
     40 H40        -7.9723   -3.2071   60.8659 H       1  ZINC000501032137    0.1300
     41 H41       -11.6268   -1.5757   59.3871 H       1  ZINC000501032137    0.1200
     42 H42       -14.8799    0.3808   60.8895 H       1  ZINC000501032137    0.4100
     43 H43       -14.9620   -4.4190   58.8738 H       1  ZINC000501032137    0.1500
     44 H44       -14.9136   -5.3047   56.4971 H       1  ZINC000501032137    0.1100
     45 H45       -15.5821   -3.6985   55.8850 H       1  ZINC000501032137    0.1000
     46 H46       -13.5595   -2.4957   56.8318 H       1  ZINC000501032137    0.1000
     47 H47       -12.8909   -4.1019   57.4439 H       1  ZINC000501032137    0.1100
     48 H48       -18.3328   -0.4579   57.9169 H       1  ZINC000501032137    0.2500
@<TRIPOS>BOND
     1     1     2    1
     2     1    27    1
     3     1    28    1
     4     1    29    1
     5     2     3    1
     6     2    30    1
     7     2    31    1
     8     3     4    1
     9     3    32    1
    10     3    33    1
    11     4     5    1
    12     5     6    1
    13     5    34    1
    14     5    35    1
    15     6     7    1
    16     6     8    1
    17     6    16    1
    18     8     9    1
    19     8    36    1
    20     8    37    1
    21     9    15   ar
    22     9    10   ar
    23    10    11   ar
    24    10    38    1
    25    11    12   ar
    26    11    39    1
    27    12    13   ar
    28    12    40    1
    29    13    14    1
    30    13    15   ar
    31    15    41    1
    32    16    17   am
    33    16    42    1
    34    17    18    2
    35    17    19    1
    36    19    26    1
    37    19    20    2
    38    20    21    1
    39    20    24    1
    40    21    23    1
    41    21    22    1
    42    21    43    1
    43    22    23    1
    44    22    44    1
    45    22    45    1
    46    23    46    1
    47    23    47    1
    48    24    25    1
    49    25    26    2
    50    25    48    1
@<TRIPOS>SUBSTRUCTURE
     1 ZINC000501032137        1 TEMP              0 ****  ****    0 ROOT


##########                                Name:    ZINC001109404798
##########                DOCK_Rotatable_Bonds:                   7
##########                         Heavy_Atoms:                  25
##########                    Molecular_Weight:              360.48
##########                DOCK_Rotatable_Bonds:                   7
##########                       Formal_Charge:           0.0100002
##########                     HBond_Acceptors:                   7
##########                        HBond_Donors:                   1
##########                         Heavy_Atoms:                  25
##########                          Grid_Score:          -33.980515
##########                     Grid_vdw_energy:          -32.384071
##########                      Grid_es_energy:           -1.596444
##########           Internal_energy_repulsive:           26.924042

@<TRIPOS>MOLECULE
ZINC001109404798
 49 52 1 0 0
SMALL
USER_CHARGES


@<TRIPOS>ATOM
      1 C1        -11.9195   -3.1912   53.3322 C.3     1  ZINC001109404798   -0.0600
      2 C2        -11.7268   -3.4674   54.8012 C.2     1  ZINC001109404798    0.1700
      3 N3        -12.5125   -4.1702   55.5611 N.2     1  ZINC001109404798   -0.3900
      4 O4        -12.0803   -4.2049   56.6939 O.3     1  ZINC001109404798    0.1000
      5 C5        -10.9433   -3.5064   56.7665 C.2     1  ZINC001109404798    0.1900
      6 C6        -10.0923   -3.3019   57.9932 C.3     1  ZINC001109404798    0.1600
      7 H7         -9.2129   -2.7135   57.7315 H       1  ZINC001109404798    0.1000
      8 C8         -9.6520   -4.6611   58.5408 C.3     1  ZINC001109404798   -0.1500
      9 N9        -10.8706   -2.5908   59.0162 N.3     1  ZINC001109404798   -0.4800
     10 C10       -10.9725   -1.1228   58.6934 C.3     1  ZINC001109404798    0.0400
     11 H11       -11.5010   -0.8736   57.7732 H       1  ZINC001109404798    0.1100
     12 C12        -9.4729   -0.7017   58.7434 C.3     1  ZINC001109404798   -0.1600
     13 C13        -8.8752   -1.6206   59.8369 C.3     1  ZINC001109404798   -0.1600
     14 C14       -10.0936   -2.4741   60.3016 C.3     1  ZINC001109404798    0.0400
     15 H15        -9.8486   -3.4139   60.7964 H       1  ZINC001109404798    0.1200
     16 C16       -10.9844   -1.4935   61.1225 C.3     1  ZINC001109404798    0.1500
     17 H17       -11.7730   -2.0364   61.6436 H       1  ZINC001109404798    0.1000
     18 N18       -10.1712   -0.7304   62.0724 N.am    1  ZINC001109404798   -0.7200
     19 C19       -10.7680    0.0407   63.0029 C.2     1  ZINC001109404798    0.5100
     20 O20       -11.9782    0.1016   63.0548 O.2     1  ZINC001109404798   -0.5300
     21 C21        -9.9315    0.8273   63.9790 C.3     1  ZINC001109404798   -0.1300
     22 C22        -8.8653   -0.0854   64.5883 C.3     1  ZINC001109404798   -0.0400
     23 C23        -7.9906    0.7151   65.5184 C.2     1  ZINC001109404798   -0.1000
     24 C24        -8.2889    0.8957   66.8059 C.2     1  ZINC001109404798   -0.2100
     25 S25        -7.0435    1.8765   67.5679 S.3     1  ZINC001109404798    0.1000
     26 C26        -6.1618    1.9893   66.0503 C.2     1  ZINC001109404798   -0.2100
     27 C27        -6.8137    1.3136   65.1028 C.2     1  ZINC001109404798   -0.1300
     28 C28       -11.6094   -0.5727   60.0052 C.3     1  ZINC001109404798   -0.1100
     29 N29       -10.7070   -3.0369   55.5650 N.2     1  ZINC001109404798   -0.4800
     30 H30       -11.4354   -3.9743   52.7487 H       1  ZINC001109404798    0.0900
     31 H31       -12.9849   -3.1730   53.1026 H       1  ZINC001109404798    0.0900
     32 H32       -11.4776   -2.2265   53.0831 H       1  ZINC001109404798    0.0900
     33 H33        -9.0745   -5.1888   57.7817 H       1  ZINC001109404798    0.0700
     34 H34        -9.0364   -4.5132   59.4281 H       1  ZINC001109404798    0.0800
     35 H35       -10.5314   -5.2496   58.8025 H       1  ZINC001109404798    0.0800
     36 H36        -8.9908   -0.8845   57.7830 H       1  ZINC001109404798    0.0700
     37 H37        -9.3778    0.3460   59.0285 H       1  ZINC001109404798    0.0800
     38 H38        -8.0969   -2.2588   59.4186 H       1  ZINC001109404798    0.0700
     39 H39        -8.4838   -1.0283   60.6640 H       1  ZINC001109404798    0.0800
     40 H40        -9.2034   -0.7799   62.0318 H       1  ZINC001109404798    0.4000
     41 H41        -9.4480    1.6543   63.4593 H       1  ZINC001109404798    0.0900
     42 H42       -10.5697    1.2194   64.7710 H       1  ZINC001109404798    0.1000
     43 H43        -9.3491   -0.8879   65.1452 H       1  ZINC001109404798    0.0800
     44 H44        -8.2547   -0.5122   63.7927 H       1  ZINC001109404798    0.0800
     45 H45        -9.1618    0.5005   67.3042 H       1  ZINC001109404798    0.1600
     46 H46        -5.2321    2.5204   65.9084 H       1  ZINC001109404798    0.1600
     47 H47        -6.4547    1.2455   64.0865 H       1  ZINC001109404798    0.1400
     48 H48       -11.3107    0.4653   60.1520 H       1  ZINC001109404798    0.0800
     49 H49       -12.6956   -0.6629   59.9967 H       1  ZINC001109404798    0.0900
@<TRIPOS>BOND
     1     1     2    1
     2     1    30    1
     3     1    31    1
     4     1    32    1
     5     2    29    1
     6     2     3    2
     7     3     4    1
     8     4     5    1
     9     5     6    1
    10     5    29    2
    11     6     7    1
    12     6     8    1
    13     6     9    1
    14     8    33    1
    15     8    34    1
    16     8    35    1
    17     9    14    1
    18     9    10    1
    19    10    11    1
    20    10    28    1
    21    10    12    1
    22    12    13    1
    23    12    36    1
    24    12    37    1
    25    13    14    1
    26    13    38    1
    27    13    39    1
    28    14    15    1
    29    14    16    1
    30    16    17    1
    31    16    18    1
    32    16    28    1
    33    18    19   am
    34    18    40    1
    35    19    20    2
    36    19    21    1
    37    21    22    1
    38    21    41    1
    39    21    42    1
    40    22    23    1
    41    22    43    1
    42    22    44    1
    43    23    27    1
    44    23    24    2
    45    24    25    1
    46    24    45    1
    47    25    26    1
    48    26    27    2
    49    26    46    1
    50    27    47    1
    51    28    48    1
    52    28    49    1
@<TRIPOS>SUBSTRUCTURE
     1 ZINC001109404798        1 TEMP              0 ****  ****    0 ROOT


##########                                Name:    ZINC001011267435
##########                DOCK_Rotatable_Bonds:                   7
##########                         Heavy_Atoms:                  24
##########                    Molecular_Weight:             331.458
##########                DOCK_Rotatable_Bonds:                   7
##########                       Formal_Charge:        -4.47035e-08
##########                     HBond_Acceptors:                   5
##########                        HBond_Donors:                   0
##########                         Heavy_Atoms:                  24
##########                          Grid_Score:          -33.975464
##########                     Grid_vdw_energy:          -34.601768
##########                      Grid_es_energy:            0.626305
##########           Internal_energy_repulsive:           42.508354

@<TRIPOS>MOLECULE
ZINC001011267435
 53 54 1 0 0
SMALL
USER_CHARGES


@<TRIPOS>ATOM
      1 C1        -10.5355   -1.9786   52.8604 C.3     1  ZINC001011267435   -0.1500
      2 C2        -12.0055   -1.9848   53.2847 C.3     1  ZINC001011267435   -0.1200
      3 C3        -12.5616   -3.4059   53.1761 C.3     1  ZINC001011267435   -0.0700
      4 C4        -12.7100   -3.9942   54.5556 C.ar    1  ZINC001011267435    0.1300
      5 C5        -11.6131   -4.0520   55.3931 C.ar    1  ZINC001011267435   -0.1200
      6 C6        -11.7637   -4.6002   56.6707 C.ar    1  ZINC001011267435   -0.0800
      7 C7        -10.6160   -4.6828   57.6038 C.2     1  ZINC001011267435    0.5600
      8 O8        -10.0096   -5.7282   57.7301 O.2     1  ZINC001011267435   -0.5200
      9 N9        -10.2444   -3.5983   58.3126 N.am    1  ZINC001011267435   -0.6100
     10 C10       -10.9722   -2.3291   58.1745 C.3     1  ZINC001011267435    0.0700
     11 C11       -11.4419   -1.8799   59.5638 C.3     1  ZINC001011267435    0.1000
     12 N12       -10.3019   -1.9455   60.4889 N.am    1  ZINC001011267435   -0.6200
     13 C13        -9.9308   -0.8614   61.1983 C.2     1  ZINC001011267435    0.5300
     14 O14        -8.9882   -0.9278   61.9586 O.2     1  ZINC001011267435   -0.5300
     15 C15       -10.6869    0.4333   61.0468 C.3     1  ZINC001011267435   -0.1100
     16 H16       -11.7555    0.2258   60.9926 H       1  ZINC001011267435    0.0900
     17 C17       -10.2387    1.1388   59.7652 C.3     1  ZINC001011267435   -0.1500
     18 C18       -10.4026    1.3338   62.2506 C.3     1  ZINC001011267435   -0.0800
     19 C19       -10.9385    2.7399   61.9737 C.3     1  ZINC001011267435   -0.1500
     20 C20       -11.0919    0.7604   63.4904 C.3     1  ZINC001011267435   -0.1500
     21 C21        -9.5740   -3.2148   60.6269 C.3     1  ZINC001011267435    0.0900
     22 C22        -9.1079   -3.6656   59.2419 C.3     1  ZINC001011267435    0.1000
     23 C23       -13.0275   -5.0675   57.0432 C.ar    1  ZINC001011267435   -0.1600
     24 C24       -14.0701   -4.9704   56.1417 C.ar    1  ZINC001011267435    0.1100
     25 N25       -13.8860   -4.4417   54.9486 N.ar    1  ZINC001011267435   -0.4600
     26 H26        -9.9666   -2.6422   53.5115 H       1  ZINC001011267435    0.0600
     27 H27       -10.4536   -2.3229   51.8295 H       1  ZINC001011267435    0.0500
     28 H28       -10.1394   -0.9661   52.9378 H       1  ZINC001011267435    0.0600
     29 H29       -12.0874   -1.6404   54.3156 H       1  ZINC001011267435    0.0700
     30 H30       -12.5745   -1.3211   52.6336 H       1  ZINC001011267435    0.0600
     31 H31       -13.5349   -3.3787   52.6861 H       1  ZINC001011267435    0.0800
     32 H32       -11.8773   -4.0202   52.5909 H       1  ZINC001011267435    0.0900
     33 H33       -10.6535   -3.6798   55.0659 H       1  ZINC001011267435    0.1400
     34 H34       -10.3120   -1.5730   57.7495 H       1  ZINC001011267435    0.0800
     35 H35       -11.8357   -2.4714   57.5248 H       1  ZINC001011267435    0.1100
     36 H36       -11.8120   -0.8559   59.5114 H       1  ZINC001011267435    0.1100
     37 H37       -12.2351   -2.5408   59.9132 H       1  ZINC001011267435    0.0700
     38 H38       -10.7237    2.1126   59.6978 H       1  ZINC001011267435    0.0800
     39 H39        -9.1570    1.2719   59.7830 H       1  ZINC001011267435    0.0600
     40 H40       -10.5161    0.5342   58.9017 H       1  ZINC001011267435    0.0600
     41 H41        -9.3274    1.3821   62.4224 H       1  ZINC001011267435    0.0800
     42 H42       -10.7361    3.3814   62.8313 H       1  ZINC001011267435    0.0600
     43 H43       -10.4475    3.1483   61.0904 H       1  ZINC001011267435    0.0600
     44 H44       -12.0139    2.6915   61.8019 H       1  ZINC001011267435    0.0600
     45 H45       -10.7101   -0.2413   63.6878 H       1  ZINC001011267435    0.0600
     46 H46       -10.8895    1.4020   64.3481 H       1  ZINC001011267435    0.0600
     47 H47       -12.1673    0.7121   63.3187 H       1  ZINC001011267435    0.0500
     48 H48        -8.7105   -3.0725   61.2767 H       1  ZINC001011267435    0.1000
     49 H49       -10.2343   -3.9708   61.0521 H       1  ZINC001011267435    0.0800
     50 H50        -8.7379   -4.6895   59.2957 H       1  ZINC001011267435    0.1100
     51 H51        -8.3149   -3.0056   58.8901 H       1  ZINC001011267435    0.0800
     52 H52       -13.1864   -5.4984   58.0208 H       1  ZINC001011267435    0.1500
     53 H53       -15.0501   -5.3291   56.4201 H       1  ZINC001011267435    0.1700
@<TRIPOS>BOND
     1     1     2    1
     2     1    26    1
     3     1    27    1
     4     1    28    1
     5     2     3    1
     6     2    29    1
     7     2    30    1
     8     3     4    1
     9     3    31    1
    10     3    32    1
    11     4    25   ar
    12     4     5   ar
    13     5     6   ar
    14     5    33    1
    15     6     7    1
    16     6    23   ar
    17     7     8    2
    18     7     9   am
    19     9    22    1
    20     9    10    1
    21    10    11    1
    22    10    34    1
    23    10    35    1
    24    11    12    1
    25    11    36    1
    26    11    37    1
    27    12    13   am
    28    12    21    1
    29    13    14    2
    30    13    15    1
    31    15    16    1
    32    15    17    1
    33    15    18    1
    34    17    38    1
    35    17    39    1
    36    17    40    1
    37    18    19    1
    38    18    20    1
    39    18    41    1
    40    19    42    1
    41    19    43    1
    42    19    44    1
    43    20    45    1
    44    20    46    1
    45    20    47    1
    46    21    22    1
    47    21    48    1
    48    21    49    1
    49    22    50    1
    50    22    51    1
    51    23    24   ar
    52    23    52    1
    53    24    25   ar
    54    24    53    1
@<TRIPOS>SUBSTRUCTURE
     1 ZINC001011267435        1 TEMP              0 ****  ****    0 ROOT


##########                                Name:    ZINC000611836474
##########                DOCK_Rotatable_Bonds:                   7
##########                         Heavy_Atoms:                  22
##########                    Molecular_Weight:             366.258
##########                DOCK_Rotatable_Bonds:                   7
##########                       Formal_Charge:          -0.0300004
##########                     HBond_Acceptors:                   5
##########                        HBond_Donors:                   1
##########                         Heavy_Atoms:                  22
##########                          Grid_Score:          -33.975391
##########                     Grid_vdw_energy:          -33.525749
##########                      Grid_es_energy:           -0.449641
##########           Internal_energy_repulsive:            7.442690

@<TRIPOS>MOLECULE
ZINC000611836474
 42 43 1 0 0
SMALL
USER_CHARGES


@<TRIPOS>ATOM
      1 C1        -11.3780   -2.1629   52.0537 C.3     1  ZINC000611836474   -0.1500
      2 C2        -12.2470   -2.5871   53.2394 C.3     1  ZINC000611836474   -0.1400
      3 C3        -11.7640   -3.9393   53.7678 C.3     1  ZINC000611836474    0.1300
      4 N4        -12.5331   -4.3003   54.9612 N.pl3   1  ZINC000611836474   -0.3900
      5 N5        -13.5618   -5.2490   55.0231 N.2     1  ZINC000611836474   -0.2900
      6 C6        -14.0069   -5.2950   56.2526 C.2     1  ZINC000611836474    0.0600
      7 C7        -13.2798   -4.3792   57.0178 C.2     1  ZINC000611836474   -0.2800
      8 C8        -12.3716   -3.7807   56.1994 C.2     1  ZINC000611836474    0.3000
      9 N9        -11.4479   -2.8031   56.5688 N.am    1  ZINC000611836474   -0.6500
     10 C10       -11.8738   -1.5795   56.9402 C.2     1  ZINC000611836474    0.5200
     11 O11       -13.0605   -1.3289   56.9548 O.2     1  ZINC000611836474   -0.4700
     12 C12       -10.8756   -0.5228   57.3377 C.3     1  ZINC000611836474    0.0700
     13 H13       -11.3387    0.1676   58.0426 H       1  ZINC000611836474    0.1100
     14 C14       -10.4234    0.2452   56.0941 C.3     1  ZINC000611836474   -0.1800
     15 O15        -9.7443   -1.1432   57.9519 O.3     1  ZINC000611836474   -0.2700
     16 C16        -9.5611   -0.9161   59.2794 C.ar    1  ZINC000611836474    0.1500
     17 C17        -9.6564    0.3723   59.7834 C.ar    1  ZINC000611836474   -0.2000
     18 C18        -9.4697    0.6008   61.1334 C.ar    1  ZINC000611836474   -0.0600
     19 C19        -9.1875   -0.4535   61.9818 C.ar    1  ZINC000611836474   -0.1100
     20 C20        -8.9839   -0.2010   63.4534 C.3     1  ZINC000611836474   -0.1100
     21 C21        -9.0922   -1.7396   61.4825 C.ar    1  ZINC000611836474   -0.0500
     22 C22        -9.2838   -1.9744   60.1342 C.ar    1  ZINC000611836474   -0.1200
     23 Br23       -9.1534   -3.7331   59.4517 Br      1  ZINC000611836474   -0.0300
     24 H24       -11.7222   -1.1996   51.6773 H       1  ZINC000611836474    0.0600
     25 H25       -10.3403   -2.0774   52.3760 H       1  ZINC000611836474    0.0600
     26 H26       -11.4527   -2.9096   51.2631 H       1  ZINC000611836474    0.0600
     27 H27       -12.1724   -1.8405   54.0300 H       1  ZINC000611836474    0.0800
     28 H28       -13.2847   -2.6727   52.9171 H       1  ZINC000611836474    0.0600
     29 H29       -11.9051   -4.7006   53.0006 H       1  ZINC000611836474    0.0800
     30 H30       -10.7064   -3.8727   54.0234 H       1  ZINC000611836474    0.1000
     31 H31       -14.8010   -5.9315   56.6142 H       1  ZINC000611836474    0.1900
     32 H32       -13.4124   -4.1837   58.0716 H       1  ZINC000611836474    0.1700
     33 H33       -10.4989   -3.0039   56.5585 H       1  ZINC000611836474    0.4100
     34 H34       -11.2864    0.7184   55.6256 H       1  ZINC000611836474    0.0800
     35 H35        -9.7014    1.0095   56.3816 H       1  ZINC000611836474    0.0800
     36 H36        -9.9603   -0.4452   55.3891 H       1  ZINC000611836474    0.0800
     37 H37        -9.8760    1.1968   59.1210 H       1  ZINC000611836474    0.1400
     38 H38        -9.5439    1.6041   61.5260 H       1  ZINC000611836474    0.1300
     39 H39        -9.9401   -0.2781   63.9710 H       1  ZINC000611836474    0.0700
     40 H40        -8.2918   -0.9403   63.8566 H       1  ZINC000611836474    0.0700
     41 H41        -8.5726    0.7981   63.5971 H       1  ZINC000611836474    0.0700
     42 H42        -8.8717   -2.5616   62.1474 H       1  ZINC000611836474    0.1400
@<TRIPOS>BOND
     1     1     2    1
     2     1    24    1
     3     1    25    1
     4     1    26    1
     5     2     3    1
     6     2    27    1
     7     2    28    1
     8     3     4    1
     9     3    29    1
    10     3    30    1
    11     4     8    1
    12     4     5    1
    13     5     6    2
    14     6     7    1
    15     6    31    1
    16     7     8    2
    17     7    32    1
    18     8     9    1
    19     9    10   am
    20     9    33    1
    21    10    11    2
    22    10    12    1
    23    12    13    1
    24    12    14    1
    25    12    15    1
    26    14    34    1
    27    14    35    1
    28    14    36    1
    29    15    16    1
    30    16    22   ar
    31    16    17   ar
    32    17    18   ar
    33    17    37    1
    34    18    19   ar
    35    18    38    1
    36    19    20    1
    37    19    21   ar
    38    20    39    1
    39    20    40    1
    40    20    41    1
    41    21    22   ar
    42    21    42    1
    43    22    23    1
@<TRIPOS>SUBSTRUCTURE
     1 ZINC000611836474        1 TEMP              0 ****  ****    0 ROOT


##########                                Name:    ZINC000342525234
##########                DOCK_Rotatable_Bonds:                   6
##########                         Heavy_Atoms:                  25
##########                    Molecular_Weight:             333.349
##########                DOCK_Rotatable_Bonds:                   6
##########                       Formal_Charge:           0.0500003
##########                     HBond_Acceptors:                   7
##########                        HBond_Donors:                   2
##########                         Heavy_Atoms:                  25
##########                          Grid_Score:          -33.952778
##########                     Grid_vdw_energy:          -32.135109
##########                      Grid_es_energy:           -1.817667
##########           Internal_energy_repulsive:            6.399568

@<TRIPOS>MOLECULE
ZINC000342525234
 40 43 1 0 0
SMALL
USER_CHARGES


@<TRIPOS>ATOM
      1 O1        -14.2141   -1.6826   54.7190 O.2     1  <0>        -0.5100
      2 C2        -13.0405   -1.9939   54.7619 C.2     1  <0>         0.6000
      3 N3        -12.6769   -3.1805   55.2874 N.am    1  <0>        -0.7100
      4 C4        -13.6962   -4.0924   55.8123 C.3     1  <0>         0.1200
      5 C5        -13.0406   -5.0994   56.7595 C.3     1  <0>        -0.0900
      6 C6        -12.0817   -4.3796   57.6723 C.ar    1  <0>        -0.0400
      7 C7        -10.8329   -4.8806   57.8441 C.ar    1  <0>        -0.1000
      8 C8         -9.9261   -4.2149   58.6968 C.ar    1  <0>         0.1100
      9 N9         -8.6781   -4.4276   59.0727 N.2     1  <0>        -0.3100
     10 N10        -8.2895   -3.4126   59.9544 N.pl3   1  <0>        -0.4200
     11 C11        -9.3008   -2.5527   60.1361 C.2     1  <0>         0.0900
     12 C12       -10.3708   -2.9884   59.3767 C.ar    1  <0>        -0.2100
     13 C13       -11.6846   -2.5249   59.1510 C.ar    1  <0>        -0.0400
     14 C14       -12.5014   -3.2120   58.3137 C.ar    1  <0>        -0.1500
     15 C15       -12.0083   -1.0705   54.2304 C.2     1  <0>        -0.0200
     16 N16       -11.9632    0.2302   54.3841 N.2     1  <0>        -0.3200
     17 O17       -11.0005    0.7132   53.8354 O.3     1  <0>         0.1400
     18 C18       -10.2529   -0.2232   53.2252 C.2     1  <0>         0.0100
     19 C19        -9.0075   -0.0020   52.4587 C.ar    1  <0>         0.0200
     20 C20        -8.2748   -1.0807   51.9502 C.ar    1  <0>        -0.1400
     21 C21        -7.1189   -0.8286   51.2405 C.ar    1  <0>         0.1100
     22 N22        -6.7029    0.4072   51.0398 N.ar    1  <0>        -0.4800
     23 C23        -7.3632    1.4519   51.5015 C.ar    1  <0>         0.1100
     24 C24        -8.5320    1.2918   52.2168 C.ar    1  <0>        -0.1500
     25 C25       -10.8688   -1.4205   53.4591 C.2     1  <0>        -0.1500
     26 H26       -11.7402   -3.4307   55.3181 H       1  <0>         0.4100
     27 H27       -14.4502   -3.5215   56.3541 H       1  <0>         0.0800
     28 H28       -14.1677   -4.6245   54.9861 H       1  <0>         0.0800
     29 H29       -13.8094   -5.5915   57.3552 H       1  <0>         0.0900
     30 H30       -12.4985   -5.8452   56.1781 H       1  <0>         0.0800
     31 H31       -10.5344   -5.7833   57.3320 H       1  <0>         0.1300
     32 H32        -7.4171   -3.3422   60.3725 H       1  <0>         0.4500
     33 H33        -9.2834   -1.6747   60.7647 H       1  <0>         0.1900
     34 H34       -12.0357   -1.6271   59.6379 H       1  <0>         0.1300
     35 H35       -13.5054   -2.8514   58.1453 H       1  <0>         0.1200
     36 H36        -8.6091   -2.0949   52.1112 H       1  <0>         0.1400
     37 H37        -6.5466   -1.6542   50.8440 H       1  <0>         0.1700
     38 H38        -6.9857    2.4461   51.3135 H       1  <0>         0.1700
     39 H39        -9.0673    2.1517   52.5918 H       1  <0>         0.1500
     40 H40       -10.5638   -2.4025   53.1289 H       1  <0>         0.1900
@<TRIPOS>BOND
     1     1     2    2
     2     2     3   am
     3     2    15    1
     4     3     4    1
     5     3    26    1
     6     4     5    1
     7     4    27    1
     8     4    28    1
     9     5     6    1
    10     5    29    1
    11     5    30    1
    12     6    14   ar
    13     6     7   ar
    14     7     8   ar
    15     7    31    1
    16     8    12   ar
    17     8     9    2
    18     9    10    1
    19    10    11    1
    20    10    32    1
    21    11    12    2
    22    11    33    1
    23    12    13   ar
    24    13    14   ar
    25    13    34    1
    26    14    35    1
    27    15    25    1
    28    15    16    2
    29    16    17    1
    30    17    18    1
    31    18    19    1
    32    18    25    2
    33    19    24   ar
    34    19    20   ar
    35    20    21   ar
    36    20    36    1
    37    21    22   ar
    38    21    37    1
    39    22    23   ar
    40    23    24   ar
    41    23    38    1
    42    24    39    1
    43    25    40    1
@<TRIPOS>SUBSTRUCTURE
     1 <0>         1 TEMP              0 ****  ****    0 ROOT


##########                                Name:    ZINC000175255939
##########                DOCK_Rotatable_Bonds:                   8
##########                         Heavy_Atoms:                  28
##########                    Molecular_Weight:             394.375
##########                DOCK_Rotatable_Bonds:                   8
##########                       Formal_Charge:          -0.0399999
##########                     HBond_Acceptors:                   9
##########                        HBond_Donors:                   1
##########                         Heavy_Atoms:                  28
##########                          Grid_Score:          -33.952477
##########                     Grid_vdw_energy:          -32.752121
##########                      Grid_es_energy:           -1.200354
##########           Internal_energy_repulsive:           11.255549

@<TRIPOS>MOLECULE
ZINC000175255939
 48 50 1 0 0
SMALL
USER_CHARGES


@<TRIPOS>ATOM
      1 C1        -17.2270   -2.3242   52.7605 C.3     1  ZINC000175255939    0.0300
      2 O2        -15.8757   -2.8407   52.8862 O.3     1  ZINC000175255939   -0.3600
      3 C3        -15.4638   -3.1761   54.1189 C.2     1  ZINC000175255939    0.4600
      4 O4        -16.2079   -3.0434   55.0615 O.2     1  ZINC000175255939   -0.5000
      5 C5        -14.0732   -3.7182   54.3271 C.3     1  ZINC000175255939   -0.0800
      6 H6        -14.0915   -4.8053   54.2494 H       1  ZINC000175255939    0.1100
      7 C7        -13.1377   -3.1463   53.2600 C.3     1  ZINC000175255939   -0.1200
      8 C8        -11.7259   -3.6966   53.4715 C.3     1  ZINC000175255939   -0.1100
      9 C9        -11.2237   -3.2930   54.8592 C.3     1  ZINC000175255939   -0.1200
     10 C10       -12.1591   -3.8650   55.9263 C.3     1  ZINC000175255939   -0.1000
     11 H11       -12.1774   -4.9520   55.8486 H       1  ZINC000175255939    0.1100
     12 C12       -11.6645   -3.4673   57.2932 C.2     1  ZINC000175255939    0.5100
     13 O13       -12.4550   -3.2823   58.1941 O.2     1  ZINC000175255939   -0.4800
     14 N14       -10.3435   -3.3174   57.5144 N.am    1  ZINC000175255939   -0.6300
     15 C15        -9.8881   -2.9497   58.7727 C.2     1  ZINC000175255939    0.2100
     16 C16       -10.3562   -1.9273   59.5428 C.2     1  ZINC000175255939   -0.2600
     17 C17        -9.5554   -1.9884   60.7128 C.2     1  ZINC000175255939    0.0900
     18 C18        -9.6381   -1.0970   61.8962 C.ar    1  ZINC000175255939   -0.0500
     19 C19       -10.7549   -0.2839   62.0810 C.ar    1  ZINC000175255939   -0.0600
     20 C20       -10.8292    0.5435   63.1816 C.ar    1  ZINC000175255939   -0.1300
     21 C21        -9.7924    0.5674   64.1050 C.ar    1  ZINC000175255939    0.1200
     22 O22        -9.8682    1.3834   65.1883 O.3     1  ZINC000175255939   -0.3200
     23 C23        -8.7399    2.2201   65.4505 C.3     1  ZINC000175255939    0.4100
     24 F24        -9.1796    3.4603   65.9260 F       1  ZINC000175255939   -0.2000
     25 F25        -7.9238    1.6147   66.4121 F       1  ZINC000175255939   -0.2000
     26 C26        -8.6787   -0.2417   63.9234 C.ar    1  ZINC000175255939   -0.1900
     27 C27        -8.6019   -1.0756   62.8280 C.ar    1  ZINC000175255939   -0.0500
     28 N28        -8.7273   -2.9907   60.5387 N.2     1  ZINC000175255939   -0.3600
     29 O29        -8.9037   -3.5346   59.4736 O.3     1  ZINC000175255939    0.1200
     30 C30       -13.5709   -3.3146   55.7149 C.3     1  ZINC000175255939   -0.0900
     31 H31       -17.4318   -2.0930   51.7152 H       1  ZINC000175255939    0.1000
     32 H32       -17.9364   -3.0730   53.1128 H       1  ZINC000175255939    0.0600
     33 H33       -17.3270   -1.4188   53.3591 H       1  ZINC000175255939    0.0600
     34 H34       -13.4956   -3.4339   52.2714 H       1  ZINC000175255939    0.0800
     35 H35       -13.1194   -2.0592   53.3378 H       1  ZINC000175255939    0.0700
     36 H36       -11.7442   -4.7837   53.3936 H       1  ZINC000175255939    0.0700
     37 H37       -11.0595   -3.2892   52.7112 H       1  ZINC000175255939    0.0800
     38 H38       -10.2179   -3.6851   55.0098 H       1  ZINC000175255939    0.0700
     39 H39       -11.2053   -2.2059   54.9369 H       1  ZINC000175255939    0.0800
     40 H40        -9.7111   -3.4666   56.7942 H       1  ZINC000175255939    0.4300
     41 H41       -11.1512   -1.2324   59.3156 H       1  ZINC000175255939    0.1800
     42 H42       -11.5613   -0.3015   61.3627 H       1  ZINC000175255939    0.1400
     43 H43       -11.6942    1.1738   63.3253 H       1  ZINC000175255939    0.1400
     44 H44        -8.1727    2.3640   64.5309 H       1  ZINC000175255939    0.1900
     45 H45        -7.8738   -0.2210   64.6432 H       1  ZINC000175255939    0.1400
     46 H46        -7.7355   -1.7048   62.6875 H       1  ZINC000175255939    0.1400
     47 H47       -13.5526   -2.2275   55.7926 H       1  ZINC000175255939    0.0900
     48 H48       -14.2374   -3.7220   56.4751 H       1  ZINC000175255939    0.0800
@<TRIPOS>BOND
     1     1     2    1
     2     1    31    1
     3     1    32    1
     4     1    33    1
     5     2     3    1
     6     3     4    2
     7     3     5    1
     8     5     6    1
     9     5    30    1
    10     5     7    1
    11     7     8    1
    12     7    34    1
    13     7    35    1
    14     8     9    1
    15     8    36    1
    16     8    37    1
    17     9    10    1
    18     9    38    1
    19     9    39    1
    20    10    11    1
    21    10    12    1
    22    10    30    1
    23    12    13    2
    24    12    14   am
    25    14    15    1
    26    14    40    1
    27    15    29    1
    28    15    16    2
    29    16    17    1
    30    16    41    1
    31    17    18    1
    32    17    28    2
    33    18    27   ar
    34    18    19   ar
    35    19    20   ar
    36    19    42    1
    37    20    21   ar
    38    20    43    1
    39    21    22    1
    40    21    26   ar
    41    22    23    1
    42    23    24    1
    43    23    25    1
    44    23    44    1
    45    26    27   ar
    46    26    45    1
    47    27    46    1
    48    28    29    1
    49    30    47    1
    50    30    48    1
@<TRIPOS>SUBSTRUCTURE
     1 ZINC000175255939        1 TEMP              0 ****  ****    0 ROOT


##########                                Name:    ZINC000006915700
##########                DOCK_Rotatable_Bonds:                   5
##########                         Heavy_Atoms:                  26
##########                    Molecular_Weight:             369.447
##########                DOCK_Rotatable_Bonds:                   5
##########                       Formal_Charge:        -1.04308e-07
##########                     HBond_Acceptors:                   8
##########                        HBond_Donors:                   1
##########                         Heavy_Atoms:                  26
##########                          Grid_Score:          -33.945946
##########                     Grid_vdw_energy:          -32.362793
##########                      Grid_es_energy:           -1.583154
##########           Internal_energy_repulsive:            3.079709

@<TRIPOS>MOLECULE
ZINC000006915700
 45 48 1 0 0
SMALL
USER_CHARGES


@<TRIPOS>ATOM
      1 C1        -15.1800   -1.6534   48.2593 C.3     1  <0>        -0.1200
      2 C2        -15.1277   -1.9260   49.7406 C.ar    1  <0>        -0.0500
      3 C3        -14.0235   -1.5317   50.4750 C.ar    1  <0>        -0.1300
      4 C4        -13.9699   -1.7780   51.8316 C.ar    1  <0>        -0.0600
      5 C5        -15.0321   -2.4262   52.4623 C.ar    1  <0>        -0.0700
      6 C6        -14.9811   -2.6932   53.9181 C.2     1  <0>         0.4400
      7 N7        -15.8703   -2.1188   54.7176 N.2     1  <0>        -0.5200
      8 C8        -15.8370   -2.3507   56.0334 C.2     1  <0>         0.3600
      9 C9        -16.6136   -1.9070   57.0960 C.2     1  <0>        -0.3200
     10 C10       -16.1097   -2.4861   58.2617 C.2     1  <0>         0.5500
     11 O11       -16.5480   -2.3191   59.3882 O.2     1  <0>        -0.5200
     12 N12       -15.0579   -3.2612   57.9328 N.am    1  <0>        -0.5000
     13 N13       -14.8714   -3.1907   56.5488 N.pl3   1  <0>        -0.3300
     14 C14       -13.9708   -3.7664   55.6996 C.2     1  <0>         0.3900
     15 S15       -12.7246   -4.8442   56.3243 S.3     1  <0>         0.1200
     16 C16       -11.4272   -3.6395   56.7009 C.3     1  <0>        -0.1500
     17 C17       -10.5911   -4.1443   57.8486 C.2     1  <0>         0.5500
     18 O18       -10.2529   -5.3084   57.8866 O.2     1  <0>        -0.5200
     19 N19       -10.2192   -3.3020   58.8328 N.am    1  <0>        -0.6100
     20 C20       -10.5617   -1.8745   58.9141 C.3     1  <0>         0.0900
     21 C21        -9.9001   -1.3166   60.1918 C.3     1  <0>        -0.1300
     22 C22        -8.7540   -2.3276   60.4595 C.3     1  <0>        -0.1400
     23 C23        -9.4068   -3.6609   60.0096 C.3     1  <0>         0.1000
     24 N24       -14.0444   -3.5122   54.4025 N.2     1  <0>        -0.5600
     25 C25       -16.1426   -2.8211   51.7163 C.ar    1  <0>        -0.0500
     26 C26       -16.1866   -2.5644   50.3613 C.ar    1  <0>        -0.1300
     27 H27       -15.6339   -0.6778   48.0853 H       1  <0>         0.0800
     28 H28       -14.1688   -1.6614   47.8525 H       1  <0>         0.0700
     29 H29       -15.7751   -2.4237   47.7689 H       1  <0>         0.0700
     30 H30       -13.2017   -1.0304   49.9855 H       1  <0>         0.1300
     31 H31       -13.1073   -1.4702   52.4038 H       1  <0>         0.1300
     32 H32       -17.4560   -1.2342   57.0318 H       1  <0>         0.1800
     33 H33       -14.5210   -3.7808   58.5514 H       1  <0>         0.4400
     34 H34       -10.7948   -3.5007   55.8241 H       1  <0>         0.1400
     35 H35       -11.8832   -2.6881   56.9744 H       1  <0>         0.1400
     36 H36       -10.1777   -1.3508   58.0388 H       1  <0>         0.0800
     37 H37       -11.6436   -1.7558   58.9747 H       1  <0>         0.0800
     38 H38        -9.5001   -0.3183   60.0144 H       1  <0>         0.0900
     39 H39       -10.6082   -1.3080   61.0204 H       1  <0>         0.0800
     40 H40        -7.8778   -2.0940   59.8546 H       1  <0>         0.0800
     41 H41        -8.4988   -2.3574   61.5188 H       1  <0>         0.0900
     42 H42       -10.0366   -4.0619   60.8038 H       1  <0>         0.0800
     43 H43        -8.6401   -4.3837   59.7309 H       1  <0>         0.0800
     44 H44       -16.9680   -3.3234   52.1990 H       1  <0>         0.1400
     45 H45       -17.0460   -2.8695   49.7827 H       1  <0>         0.1300
@<TRIPOS>BOND
     1     1     2    1
     2     1    27    1
     3     1    28    1
     4     1    29    1
     5     2    26   ar
     6     2     3   ar
     7     3     4   ar
     8     3    30    1
     9     4     5   ar
    10     4    31    1
    11     5     6    1
    12     5    25   ar
    13     6    24    1
    14     6     7    2
    15     7     8    1
    16     8    13    1
    17     8     9    2
    18     9    10    1
    19     9    32    1
    20    10    11    2
    21    10    12   am
    22    12    13    1
    23    12    33    1
    24    13    14    1
    25    14    15    1
    26    14    24    2
    27    15    16    1
    28    16    17    1
    29    16    34    1
    30    16    35    1
    31    17    18    2
    32    17    19   am
    33    19    23    1
    34    19    20    1
    35    20    21    1
    36    20    36    1
    37    20    37    1
    38    21    22    1
    39    21    38    1
    40    21    39    1
    41    22    23    1
    42    22    40    1
    43    22    41    1
    44    23    42    1
    45    23    43    1
    46    25    26   ar
    47    25    44    1
    48    26    45    1
@<TRIPOS>SUBSTRUCTURE
     1 <0>         1 TEMP              0 ****  ****    0 ROOT


##########                                Name:    ZINC000432058199
##########                DOCK_Rotatable_Bonds:                   5
##########                         Heavy_Atoms:                  30
##########                    Molecular_Weight:             406.441
##########                DOCK_Rotatable_Bonds:                   5
##########                       Formal_Charge:        -4.02331e-07
##########                     HBond_Acceptors:                   8
##########                        HBond_Donors:                   1
##########                         Heavy_Atoms:                  30
##########                          Grid_Score:          -33.944370
##########                     Grid_vdw_energy:          -33.466949
##########                      Grid_es_energy:           -0.477423
##########           Internal_energy_repulsive:           18.403545

@<TRIPOS>MOLECULE
ZINC000432058199
 52 55 1 0 0
SMALL
USER_CHARGES


@<TRIPOS>ATOM
      1 C1         -9.4970    1.8490   52.7823 C.3     1  ZINC000432058199    0.0300
      2 O2        -10.4837    1.3594   53.6927 O.3     1  ZINC000432058199   -0.3100
      3 C3        -10.7451    0.0261   53.6607 C.ar    1  ZINC000432058199    0.1300
      4 C4        -10.0658   -0.7930   52.7698 C.ar    1  ZINC000432058199   -0.1900
      5 C5        -10.3286   -2.1498   52.7340 C.ar    1  ZINC000432058199   -0.0800
      6 C6        -11.2683   -2.6973   53.5840 C.ar    1  ZINC000432058199   -0.1100
      7 C7        -11.9545   -1.8817   54.4820 C.ar    1  ZINC000432058199    0.0100
      8 C8        -12.9650   -2.4681   55.3975 C.2     1  ZINC000432058199    0.2100
      9 N9        -13.2938   -3.7305   55.4844 N.2     1  ZINC000432058199   -0.3700
     10 O10       -14.1510   -3.8809   56.3293 O.3     1  ZINC000432058199    0.1200
     11 C11       -14.4631   -2.7032   56.8792 C.2     1  ZINC000432058199    0.1600
     12 C12       -15.4803   -2.4639   57.9651 C.3     1  ZINC000432058199    0.2500
     13 H13       -16.1100   -3.3468   58.0739 H       1  ZINC000432058199    0.1500
     14 C14       -16.3490   -1.2604   57.5938 C.3     1  ZINC000432058199   -0.1700
     15 N15       -14.7908   -2.1968   59.2299 N.am    1  ZINC000432058199   -0.5800
     16 C16       -14.9277   -2.9422   60.3325 C.2     1  ZINC000432058199    0.7000
     17 O17       -15.6421   -3.9231   60.4004 O.2     1  ZINC000432058199   -0.5100
     18 N18       -14.1862   -2.4848   61.3573 N.am    1  ZINC000432058199   -0.7200
     19 C19       -13.4760   -1.2920   60.8642 C.3     1  ZINC000432058199    0.1400
     20 H20       -13.7645   -0.4101   61.4361 H       1  ZINC000432058199    0.1400
     21 C21       -11.9846   -1.4987   60.9279 C.ar    1  ZINC000432058199   -0.1000
     22 C22       -11.3807   -2.4331   60.1073 C.ar    1  ZINC000432058199   -0.1000
     23 C23       -10.0126   -2.6228   60.1657 C.ar    1  ZINC000432058199   -0.0800
     24 C24        -9.3543   -3.6416   59.2716 C.3     1  ZINC000432058199   -0.1200
     25 C25        -9.2484   -1.8775   61.0440 C.ar    1  ZINC000432058199   -0.1100
     26 C26        -9.8523   -0.9429   61.8643 C.ar    1  ZINC000432058199   -0.0800
     27 C27        -9.0192   -0.1308   62.8222 C.3     1  ZINC000432058199   -0.1200
     28 C28       -11.2197   -0.7502   61.8029 C.ar    1  ZINC000432058199   -0.1000
     29 C29       -13.9360   -1.1733   59.4247 C.2     1  ZINC000432058199    0.5300
     30 O30       -13.6077   -0.3298   58.6182 O.2     1  ZINC000432058199   -0.4500
     31 N31       -13.7138   -1.7973   56.3018 N.2     1  ZINC000432058199   -0.4500
     32 C32       -11.6857   -0.5162   54.5214 C.ar    1  ZINC000432058199   -0.1200
     33 H33        -9.3857    2.9256   52.9115 H       1  ZINC000432058199    0.1000
     34 H34        -8.5439    1.3588   52.9812 H       1  ZINC000432058199    0.0600
     35 H35        -9.8086    1.6361   51.7597 H       1  ZINC000432058199    0.0600
     36 H36        -9.3300   -0.3693   52.1024 H       1  ZINC000432058199    0.1400
     37 H37        -9.7977   -2.7831   52.0386 H       1  ZINC000432058199    0.1400
     38 H38       -11.4719   -3.7575   53.5532 H       1  ZINC000432058199    0.1400
     39 H39       -15.7193   -0.3774   57.4850 H       1  ZINC000432058199    0.0900
     40 H40       -16.8620   -1.4590   56.6528 H       1  ZINC000432058199    0.0900
     41 H41       -17.0847   -1.0874   58.3793 H       1  ZINC000432058199    0.0900
     42 H42       -14.1303   -2.8656   62.2477 H       1  ZINC000432058199    0.4500
     43 H43       -11.9777   -3.0150   59.4208 H       1  ZINC000432058199    0.1200
     44 H44        -9.0651   -3.1686   58.3331 H       1  ZINC000432058199    0.0700
     45 H45        -8.4684   -4.0403   59.7657 H       1  ZINC000432058199    0.0700
     46 H46       -10.0534   -4.4530   59.0690 H       1  ZINC000432058199    0.0700
     47 H47        -8.1797   -2.0258   61.0897 H       1  ZINC000432058199    0.1300
     48 H48        -8.6878    0.7837   62.3302 H       1  ZINC000432058199    0.0700
     49 H49        -9.6165    0.1235   63.6977 H       1  ZINC000432058199    0.0700
     50 H50        -8.1506   -0.7123   63.1313 H       1  ZINC000432058199    0.0700
     51 H51       -11.6915   -0.0201   62.4436 H       1  ZINC000432058199    0.1300
     52 H52       -12.2148    0.1200   55.2155 H       1  ZINC000432058199    0.1400
@<TRIPOS>BOND
     1     1     2    1
     2     1    33    1
     3     1    34    1
     4     1    35    1
     5     2     3    1
     6     3    32   ar
     7     3     4   ar
     8     4     5   ar
     9     4    36    1
    10     5     6   ar
    11     5    37    1
    12     6     7   ar
    13     6    38    1
    14     7     8    1
    15     7    32   ar
    16     8    31    1
    17     8     9    2
    18     9    10    1
    19    10    11    1
    20    11    12    1
    21    11    31    2
    22    12    13    1
    23    12    14    1
    24    12    15    1
    25    14    39    1
    26    14    40    1
    27    14    41    1
    28    15    29   am
    29    15    16   am
    30    16    17    2
    31    16    18   am
    32    18    19    1
    33    18    42    1
    34    19    20    1
    35    19    21    1
    36    19    29    1
    37    21    28   ar
    38    21    22   ar
    39    22    23   ar
    40    22    43    1
    41    23    24    1
    42    23    25   ar
    43    24    44    1
    44    24    45    1
    45    24    46    1
    46    25    26   ar
    47    25    47    1
    48    26    27    1
    49    26    28   ar
    50    27    48    1
    51    27    49    1
    52    27    50    1
    53    28    51    1
    54    29    30    2
    55    32    52    1
@<TRIPOS>SUBSTRUCTURE
     1 ZINC000432058199        1 TEMP              0 ****  ****    0 ROOT


##########                                Name:    ZINC000443394081
##########                DOCK_Rotatable_Bonds:                   8
##########                         Heavy_Atoms:                  27
##########                    Molecular_Weight:             389.878
##########                DOCK_Rotatable_Bonds:                   8
##########                       Formal_Charge:          -0.0300003
##########                     HBond_Acceptors:                   6
##########                        HBond_Donors:                   1
##########                         Heavy_Atoms:                  27
##########                          Grid_Score:          -33.936211
##########                     Grid_vdw_energy:          -33.219360
##########                      Grid_es_energy:           -0.716849
##########           Internal_energy_repulsive:           30.679287

@<TRIPOS>MOLECULE
ZINC000443394081
 51 53 1 0 0
SMALL
USER_CHARGES


@<TRIPOS>ATOM
      1 C1         -8.2924   -3.5297   59.2738 C.3     1  ZINC000443394081    0.0200
      2 O2         -9.4825   -3.9180   59.9630 O.3     1  ZINC000443394081   -0.3000
      3 C3        -10.6633   -3.4756   59.4536 C.ar    1  ZINC000443394081    0.1000
      4 C4        -11.1504   -4.0085   58.2763 C.ar    1  ZINC000443394081   -0.1200
      5 C5        -12.3645   -3.5519   57.7558 C.ar    1  ZINC000443394081   -0.1300
      6 C6        -12.8898   -4.1184   56.4981 C.2     1  ZINC000443394081    0.5700
      7 O7        -13.8286   -4.8906   56.5245 O.2     1  ZINC000443394081   -0.4900
      8 N8        -12.3291   -3.7796   55.3204 N.am    1  ZINC000443394081   -0.6100
      9 C9        -12.7518   -4.2685   53.9953 C.3     1  ZINC000443394081    0.0900
     10 C10       -12.2741   -3.1813   53.0005 C.3     1  ZINC000443394081   -0.1300
     11 C11       -10.9204   -2.7574   53.6288 C.3     1  ZINC000443394081   -0.1000
     12 H12       -10.1264   -3.4432   53.3334 H       1  ZINC000443394081    0.0900
     13 C13       -10.5671   -1.3217   53.2355 C.3     1  ZINC000443394081   -0.1500
     14 C14       -11.1986   -2.8563   55.1435 C.3     1  ZINC000443394081    0.1400
     15 H15       -10.3213   -3.2501   55.6567 H       1  ZINC000443394081    0.0800
     16 C16       -11.5501   -1.4749   55.6993 C.3     1  ZINC000443394081    0.0600
     17 O17       -12.8377   -1.0821   55.2201 O.3     1  ZINC000443394081   -0.5400
     18 C18       -13.0798   -2.5588   58.4286 C.ar    1  ZINC000443394081   -0.1000
     19 C19       -12.5880   -2.0307   59.6029 C.ar    1  ZINC000443394081   -0.1800
     20 C20       -11.3852   -2.4880   60.1229 C.ar    1  ZINC000443394081    0.1300
     21 O21       -10.9047   -1.9647   61.2802 O.3     1  ZINC000443394081   -0.3000
     22 C22       -10.2563   -0.6939   61.1975 C.3     1  ZINC000443394081    0.1000
     23 C23       -10.0937   -0.1219   62.5822 C.ar    1  ZINC000443394081   -0.0800
     24 C24        -8.9549   -0.3980   63.3148 C.ar    1  ZINC000443394081   -0.0800
     25 C25        -8.8057    0.1266   64.5853 C.ar    1  ZINC000443394081   -0.1100
     26 C26        -9.7954    0.9272   65.1237 C.ar    1  ZINC000443394081   -0.1000
     27 C27       -10.9351    1.2041   64.3919 C.ar    1  ZINC000443394081   -0.1100
     28 C28       -11.0822    0.6846   63.1183 C.ar    1  ZINC000443394081   -0.0300
     29 Cl29      -12.5130    1.0319   62.1987 Cl      1  ZINC000443394081   -0.0700
     30 H30        -7.4245   -3.9484   59.7832 H       1  ZINC000443394081    0.1000
     31 H31        -8.3276   -3.9022   58.2501 H       1  ZINC000443394081    0.0600
     32 H32        -8.2175   -2.4423   59.2624 H       1  ZINC000443394081    0.0600
     33 H33       -10.5942   -4.7761   57.7588 H       1  ZINC000443394081    0.1500
     34 H34       -12.2740   -5.2226   53.7728 H       1  ZINC000443394081    0.0700
     35 H35       -13.8365   -4.3683   53.9561 H       1  ZINC000443394081    0.0800
     36 H36       -12.1286   -3.5999   52.0047 H       1  ZINC000443394081    0.0900
     37 H37       -12.9712   -2.3439   52.9726 H       1  ZINC000443394081    0.0800
     38 H38       -11.3585   -0.6492   53.5660 H       1  ZINC000443394081    0.0600
     39 H39        -9.6270   -1.0364   53.7079 H       1  ZINC000443394081    0.0600
     40 H40       -10.4637   -1.2566   52.1524 H       1  ZINC000443394081    0.0600
     41 H41       -11.5643   -1.5144   56.7885 H       1  ZINC000443394081    0.0600
     42 H42       -10.8041   -0.7509   55.3717 H       1  ZINC000443394081    0.0400
     43 H43       -13.5569   -1.6632   55.5035 H       1  ZINC000443394081    0.3700
     44 H44       -14.0182   -2.2042   58.0284 H       1  ZINC000443394081    0.1400
     45 H45       -13.1419   -1.2625   60.1218 H       1  ZINC000443394081    0.1400
     46 H46        -9.2757   -0.8156   60.7373 H       1  ZINC000443394081    0.0800
     47 H47       -10.8598   -0.0167   60.5932 H       1  ZINC000443394081    0.0800
     48 H48        -8.1815   -1.0241   62.8949 H       1  ZINC000443394081    0.1400
     49 H49        -7.9155   -0.0895   65.1574 H       1  ZINC000443394081    0.1300
     50 H50        -9.6787    1.3361   66.1164 H       1  ZINC000443394081    0.1300
     51 H51       -11.7084    1.8297   64.8127 H       1  ZINC000443394081    0.1400
@<TRIPOS>BOND
     1     1     2    1
     2     1    30    1
     3     1    31    1
     4     1    32    1
     5     2     3    1
     6     3    20   ar
     7     3     4   ar
     8     4     5   ar
     9     4    33    1
    10     5     6    1
    11     5    18   ar
    12     6     7    2
    13     6     8   am
    14     8    14    1
    15     8     9    1
    16     9    10    1
    17     9    34    1
    18     9    35    1
    19    10    11    1
    20    10    36    1
    21    10    37    1
    22    11    12    1
    23    11    13    1
    24    11    14    1
    25    13    38    1
    26    13    39    1
    27    13    40    1
    28    14    15    1
    29    14    16    1
    30    16    17    1
    31    16    41    1
    32    16    42    1
    33    17    43    1
    34    18    19   ar
    35    18    44    1
    36    19    20   ar
    37    19    45    1
    38    20    21    1
    39    21    22    1
    40    22    23    1
    41    22    46    1
    42    22    47    1
    43    23    28   ar
    44    23    24   ar
    45    24    25   ar
    46    24    48    1
    47    25    26   ar
    48    25    49    1
    49    26    27   ar
    50    26    50    1
    51    27    28   ar
    52    27    51    1
    53    28    29    1
@<TRIPOS>SUBSTRUCTURE
     1 ZINC000443394081        1 TEMP              0 ****  ****    0 ROOT


##########                                Name:    ZINC000675319328
##########                DOCK_Rotatable_Bonds:                   7
##########                         Heavy_Atoms:                  26
##########                    Molecular_Weight:             363.475
##########                DOCK_Rotatable_Bonds:                   7
##########                       Formal_Charge:          -0.0200007
##########                     HBond_Acceptors:                   6
##########                        HBond_Donors:                   1
##########                         Heavy_Atoms:                  26
##########                          Grid_Score:          -33.929226
##########                     Grid_vdw_energy:          -33.832977
##########                      Grid_es_energy:           -0.096247
##########           Internal_energy_repulsive:           17.673195

@<TRIPOS>MOLECULE
ZINC000675319328
 56 58 1 0 0
SMALL
USER_CHARGES


@<TRIPOS>ATOM
      1 C1        -13.4635   -4.6390   55.8499 C.3     1  ZINC000675319328   -0.1600
      2 C2        -12.6692   -3.3330   55.9135 C.3     1  ZINC000675319328    0.1600
      3 H3        -13.3579   -2.4930   56.0047 H       1  ZINC000675319328    0.0900
      4 C4        -11.8409   -3.1770   54.6366 C.3     1  ZINC000675319328   -0.1200
      5 C5        -12.7771   -2.9934   53.4405 C.3     1  ZINC000675319328   -0.1200
      6 H6        -13.4496   -3.8455   53.3421 H       1  ZINC000675319328    0.0800
      7 C7        -13.5781   -1.6686   53.5640 C.3     1  ZINC000675319328   -0.1500
      8 C8        -13.8359   -1.3407   52.0717 C.3     1  ZINC000675319328    0.0500
      9 O9        -12.6449   -1.7570   51.3850 O.3     1  ZINC000675319328   -0.3900
     10 C10       -11.9723   -2.7756   52.1413 C.3     1  ZINC000675319328    0.0500
     11 N11       -11.7762   -3.3606   57.0746 N.am    1  ZINC000675319328   -0.7400
     12 C12       -12.2202   -2.9420   58.2763 C.2     1  ZINC000675319328    0.7000
     13 O13       -13.3619   -2.5415   58.3968 O.2     1  ZINC000675319328   -0.5900
     14 N14       -11.3987   -2.9673   59.3444 N.am    1  ZINC000675319328   -0.6200
     15 C15       -10.0183   -3.4589   59.1668 C.3     1  ZINC000675319328    0.1300
     16 C16        -9.0113   -2.5870   59.9356 C.3     1  ZINC000675319328   -0.1300
     17 C17        -9.3985   -1.1302   59.8068 C.3     1  ZINC000675319328    0.0700
     18 N18       -10.2512   -0.7604   60.9352 N.3     1  ZINC000675319328   -0.5500
     19 C19        -9.9951    0.6231   61.3574 C.3     1  ZINC000675319328    0.1000
     20 C20        -9.6883    0.6496   62.8326 C.ar    1  ZINC000675319328   -0.0900
     21 C21       -10.2227    1.6434   63.6315 C.ar    1  ZINC000675319328   -0.0900
     22 C22        -9.9420    1.6686   64.9844 C.ar    1  ZINC000675319328   -0.1500
     23 C23        -9.1257    0.6979   65.5398 C.ar    1  ZINC000675319328    0.1000
     24 F24        -8.8511    0.7214   66.8624 F       1  ZINC000675319328   -0.1400
     25 C25        -8.5915   -0.2972   64.7389 C.ar    1  ZINC000675319328   -0.1500
     26 C26        -8.8775   -0.3231   63.3870 C.ar    1  ZINC000675319328   -0.0700
     27 C27       -11.6374   -0.9939   60.7774 C.3     1  ZINC000675319328    0.0500
     28 C28       -11.9024   -2.5055   60.6220 C.3     1  ZINC000675319328    0.1100
     29 H29       -14.0537   -4.7501   56.7595 H       1  ZINC000675319328    0.0600
     30 H30       -14.1279   -4.6185   54.9860 H       1  ZINC000675319328    0.0700
     31 H31       -12.7749   -5.4790   55.7587 H       1  ZINC000675319328    0.0500
     32 H32       -11.1930   -2.3052   54.7281 H       1  ZINC000675319328    0.0700
     33 H33       -11.2316   -4.0684   54.4877 H       1  ZINC000675319328    0.0900
     34 H34       -14.5146   -1.8241   54.0994 H       1  ZINC000675319328    0.0800
     35 H35       -12.9804   -0.8909   54.0394 H       1  ZINC000675319328    0.0800
     36 H36       -14.6981   -1.8978   51.7054 H       1  ZINC000675319328    0.0600
     37 H37       -13.9931   -0.2699   51.9413 H       1  ZINC000675319328    0.0900
     38 H38       -10.9618   -2.4480   52.3858 H       1  ZINC000675319328    0.0700
     39 H39       -11.9334   -3.6995   51.5643 H       1  ZINC000675319328    0.0700
     40 H40       -10.8655   -3.6801   56.9785 H       1  ZINC000675319328    0.3900
     41 H41        -9.9547   -4.4839   59.5322 H       1  ZINC000675319328    0.0600
     42 H42        -9.7674   -3.4430   58.1061 H       1  ZINC000675319328    0.0900
     43 H43        -9.0140   -2.8714   60.9878 H       1  ZINC000675319328    0.0800
     44 H44        -8.0136   -2.7351   59.5227 H       1  ZINC000675319328    0.0800
     45 H45        -8.5003   -0.5127   59.8110 H       1  ZINC000675319328    0.0700
     46 H46        -9.9419   -0.9786   58.8742 H       1  ZINC000675319328    0.0400
     47 H47        -9.1456    1.0210   60.8024 H       1  ZINC000675319328    0.0900
     48 H48       -10.8766    1.2328   61.1587 H       1  ZINC000675319328    0.0400
     49 H49       -10.8594    2.4003   63.1980 H       1  ZINC000675319328    0.1300
     50 H50       -10.3590    2.4454   65.6082 H       1  ZINC000675319328    0.1400
     51 H51        -7.9544   -1.0546   65.1709 H       1  ZINC000675319328    0.1400
     52 H52        -8.4612   -1.0994   62.7621 H       1  ZINC000675319328    0.1300
     53 H53       -12.1691   -0.6202   61.6526 H       1  ZINC000675319328    0.0900
     54 H54       -11.9934   -0.4717   59.8894 H       1  ZINC000675319328    0.0300
     55 H55       -12.9748   -2.6931   60.6758 H       1  ZINC000675319328    0.0700
     56 H56       -11.3996   -3.0463   61.4237 H       1  ZINC000675319328    0.0900
@<TRIPOS>BOND
     1     1     2    1
     2     1    29    1
     3     1    30    1
     4     1    31    1
     5     2     3    1
     6     2     4    1
     7     2    11    1
     8     4     5    1
     9     4    32    1
    10     4    33    1
    11     5     6    1
    12     5    10    1
    13     5     7    1
    14     7     8    1
    15     7    34    1
    16     7    35    1
    17     8     9    1
    18     8    36    1
    19     8    37    1
    20     9    10    1
    21    10    38    1
    22    10    39    1
    23    11    12   am
    24    11    40    1
    25    12    13    2
    26    12    14   am
    27    14    28    1
    28    14    15    1
    29    15    16    1
    30    15    41    1
    31    15    42    1
    32    16    17    1
    33    16    43    1
    34    16    44    1
    35    17    18    1
    36    17    45    1
    37    17    46    1
    38    18    19    1
    39    18    27    1
    40    19    20    1
    41    19    47    1
    42    19    48    1
    43    20    26   ar
    44    20    21   ar
    45    21    22   ar
    46    21    49    1
    47    22    23   ar
    48    22    50    1
    49    23    24    1
    50    23    25   ar
    51    25    26   ar
    52    25    51    1
    53    26    52    1
    54    27    28    1
    55    27    53    1
    56    27    54    1
    57    28    55    1
    58    28    56    1
@<TRIPOS>SUBSTRUCTURE
     1 ZINC000675319328        1 TEMP              0 ****  ****    0 ROOT


##########                                Name:    ZINC001077846158
##########                DOCK_Rotatable_Bonds:                   7
##########                         Heavy_Atoms:                  24
##########                    Molecular_Weight:             350.442
##########                DOCK_Rotatable_Bonds:                   7
##########                       Formal_Charge:          -0.0600002
##########                     HBond_Acceptors:                   8
##########                        HBond_Donors:                   2
##########                         Heavy_Atoms:                  24
##########                          Grid_Score:          -33.927811
##########                     Grid_vdw_energy:          -32.331245
##########                      Grid_es_energy:           -1.596566
##########           Internal_energy_repulsive:            9.680017

@<TRIPOS>MOLECULE
ZINC001077846158
 46 48 1 0 0
SMALL
USER_CHARGES


@<TRIPOS>ATOM
      1 C1        -14.4589   -2.7235   59.2849 C.3     1  ZINC001077846158   -0.0700
      2 C2        -14.0915   -3.8110   58.3083 C.2     1  ZINC001077846158    0.0100
      3 C3        -13.0004   -3.8376   57.5253 C.2     1  ZINC001077846158   -0.0500
      4 C4        -11.9193   -2.7897   57.4603 C.3     1  ZINC001077846158    0.1300
      5 N5        -11.2852   -2.6580   58.7788 N.3     1  ZINC001077846158   -0.5100
      6 C6        -10.1564   -3.6124   58.9243 C.3     1  ZINC001077846158    0.0000
      7 C7         -9.3176   -2.9970   60.0726 C.3     1  ZINC001077846158    0.1000
      8 H8         -9.7464   -3.2505   61.0421 H       1  ZINC001077846158    0.0800
      9 O9         -7.9582   -3.4301   59.9941 O.3     1  ZINC001077846158   -0.5600
     10 C10        -9.4282   -1.4782   59.8059 C.3     1  ZINC001077846158    0.1400
     11 H11        -8.5552   -1.1260   59.2565 H       1  ZINC001077846158    0.1100
     12 N12        -9.5614   -0.7485   61.0692 N.am    1  ZINC001077846158   -0.7000
     13 C13        -9.7745    0.5823   61.0595 C.2     1  ZINC001077846158    0.6000
     14 O14        -9.8549    1.1776   60.0019 O.2     1  ZINC001077846158   -0.5300
     15 C15        -9.9102    1.3156   62.3293 C.2     1  ZINC001077846158    0.0100
     16 C16       -10.2923    2.6107   62.3979 C.2     1  ZINC001077846158   -0.2300
     17 S17       -10.3287    3.0892   64.0386 S.3     1  ZINC001077846158    0.2300
     18 C18        -9.8320    1.5335   64.5382 C.2     1  ZINC001077846158    0.0300
     19 C19        -9.6165    1.1204   65.9714 C.3     1  ZINC001077846158   -0.0200
     20 C20        -8.4913    0.0861   66.0404 C.3     1  ZINC001077846158   -0.1500
     21 C21        -9.2345    2.3461   66.8036 C.3     1  ZINC001077846158   -0.1500
     22 N22        -9.6727    0.7618   63.5213 N.2     1  ZINC001077846158   -0.4500
     23 C23       -10.6995   -1.3111   58.9531 C.3     1  ZINC001077846158    0.0300
     24 O24       -13.0541   -4.9778   56.8091 O.3     1  ZINC001077846158   -0.2100
     25 C25       -14.1703   -5.6294   57.1615 C.2     1  ZINC001077846158    0.1800
     26 N26       -14.7939   -4.9322   58.0680 N.2     1  ZINC001077846158   -0.4900
     27 H27       -14.0243   -2.9480   60.2590 H       1  ZINC001077846158    0.0800
     28 H28       -14.0744   -1.7685   58.9269 H       1  ZINC001077846158    0.0700
     29 H29       -15.5437   -2.6677   59.3753 H       1  ZINC001077846158    0.0700
     30 H30       -11.1708   -3.0850   56.7250 H       1  ZINC001077846158    0.0600
     31 H31       -12.3564   -1.8343   57.1703 H       1  ZINC001077846158    0.1100
     32 H32       -10.5217   -4.6010   59.2019 H       1  ZINC001077846158    0.0900
     33 H33        -9.5728   -3.6609   58.0050 H       1  ZINC001077846158    0.0600
     34 H34        -7.3516   -2.9251   60.5527 H       1  ZINC001077846158    0.3900
     35 H35        -9.4962   -1.2230   61.9127 H       1  ZINC001077846158    0.4100
     36 H36       -10.5349    3.2399   61.5543 H       1  ZINC001077846158    0.1900
     37 H37       -10.5348    0.6852   66.3660 H       1  ZINC001077846158    0.1000
     38 H38        -8.7635   -0.7871   65.4475 H       1  ZINC001077846158    0.0600
     39 H39        -7.5731    0.5213   65.6458 H       1  ZINC001077846158    0.0600
     40 H40        -8.3355   -0.2127   67.0770 H       1  ZINC001077846158    0.0700
     41 H41       -10.0361    3.0829   66.7544 H       1  ZINC001077846158    0.0600
     42 H42        -9.0786    2.0473   67.8402 H       1  ZINC001077846158    0.0700
     43 H43        -8.3163    2.7813   66.4089 H       1  ZINC001077846158    0.0600
     44 H44       -10.4421   -0.8896   57.9815 H       1  ZINC001077846158    0.0600
     45 H45       -11.4084   -0.6616   59.4666 H       1  ZINC001077846158    0.0900
     46 H46       -14.4972   -6.5784   56.7628 H       1  ZINC001077846158    0.2500
@<TRIPOS>BOND
     1     1     2    1
     2     1    27    1
     3     1    28    1
     4     1    29    1
     5     2    26    1
     6     2     3    2
     7     3     4    1
     8     3    24    1
     9     4     5    1
    10     4    30    1
    11     4    31    1
    12     5    23    1
    13     5     6    1
    14     6     7    1
    15     6    32    1
    16     6    33    1
    17     7     8    1
    18     7     9    1
    19     7    10    1
    20     9    34    1
    21    10    11    1
    22    10    12    1
    23    10    23    1
    24    12    13   am
    25    12    35    1
    26    13    14    2
    27    13    15    1
    28    15    22    1
    29    15    16    2
    30    16    17    1
    31    16    36    1
    32    17    18    1
    33    18    19    1
    34    18    22    2
    35    19    20    1
    36    19    21    1
    37    19    37    1
    38    20    38    1
    39    20    39    1
    40    20    40    1
    41    21    41    1
    42    21    42    1
    43    21    43    1
    44    23    44    1
    45    23    45    1
    46    24    25    1
    47    25    26    2
    48    25    46    1
@<TRIPOS>SUBSTRUCTURE
     1 ZINC001077846158        1 TEMP              0 ****  ****    0 ROOT


##########                                Name:    ZINC001456607258
##########                DOCK_Rotatable_Bonds:                   9
##########                         Heavy_Atoms:                  25
##########                    Molecular_Weight:             339.437
##########                DOCK_Rotatable_Bonds:                   9
##########                       Formal_Charge:          -0.0200009
##########                     HBond_Acceptors:                   5
##########                        HBond_Donors:                   2
##########                         Heavy_Atoms:                  25
##########                          Grid_Score:          -33.926956
##########                     Grid_vdw_energy:          -30.639757
##########                      Grid_es_energy:           -3.287201
##########           Internal_energy_repulsive:           11.686346

@<TRIPOS>MOLECULE
ZINC001456607258
 50 52 1 0 0
SMALL
USER_CHARGES


@<TRIPOS>ATOM
      1 C1        -11.9307   -2.6124   53.8648 C.3     1  ZINC001456607258   -0.1600
      2 C2        -12.5106   -3.7190   54.7480 C.3     1  ZINC001456607258   -0.1100
      3 C3        -12.1736   -3.4318   56.2126 C.3     1  ZINC001456607258   -0.1000
      4 H4        -12.1125   -2.3546   56.3669 H       1  ZINC001456607258    0.0900
      5 C5        -10.8295   -4.0741   56.5620 C.3     1  ZINC001456607258   -0.0700
      6 C6        -10.2338   -3.3740   57.7562 C.ar    1  ZINC001456607258   -0.0800
      7 C7         -9.9494   -4.0881   58.9052 C.ar    1  ZINC001456607258   -0.1200
      8 C8         -9.4029   -3.4459   60.0005 C.ar    1  ZINC001456607258   -0.1200
      9 C9         -9.1405   -2.0897   59.9468 C.ar    1  ZINC001456607258   -0.1200
     10 C10        -9.4240   -1.3759   58.7976 C.ar    1  ZINC001456607258   -0.1200
     11 C11        -9.9664   -2.0189   57.7007 C.ar    1  ZINC001456607258   -0.1200
     12 C12       -13.2498   -4.0060   57.0975 C.2     1  ZINC001456607258    0.5200
     13 O13       -13.5569   -5.1750   56.9983 O.2     1  ZINC001456607258   -0.5300
     14 N14       -13.8711   -3.2202   57.9993 N.am    1  ZINC001456607258   -0.7300
     15 C15       -14.9174   -3.7783   58.8596 C.3     1  ZINC001456607258    0.1300
     16 C16       -15.1949   -2.8150   60.0153 C.3     1  ZINC001456607258   -0.1400
     17 C17       -13.9262   -2.1734   60.6058 C.3     1  ZINC001456607258    0.1100
     18 N18       -14.7007   -0.9177   60.6448 N.am    1  ZINC001456607258   -0.6500
     19 C19       -14.6323    0.2118   61.3770 C.2     1  ZINC001456607258    0.6100
     20 O20       -15.4297    1.1100   61.1854 O.2     1  ZINC001456607258   -0.5400
     21 C21       -13.5921    0.3583   62.4090 C.2     1  ZINC001456607258   -0.2300
     22 C22       -12.2991   -0.0825   62.3414 C.2     1  ZINC001456607258    0.0400
     23 N23       -11.6764    0.2493   63.4883 N.pl3   1  ZINC001456607258   -0.5500
     24 C24       -12.5356    0.9055   64.3207 C.2     1  ZINC001456607258   -0.0200
     25 C25       -13.7315    1.0121   63.7147 C.2     1  ZINC001456607258   -0.1400
     26 C26       -15.5801   -1.3956   59.5603 C.3     1  ZINC001456607258    0.1100
     27 H27       -12.0909   -2.8630   52.8161 H       1  ZINC001456607258    0.0600
     28 H28       -12.4263   -1.6686   54.0925 H       1  ZINC001456607258    0.0600
     29 H29       -10.8620   -2.5171   54.0564 H       1  ZINC001456607258    0.0600
     30 H30       -13.5930   -3.7530   54.6242 H       1  ZINC001456607258    0.0800
     31 H31       -12.0813   -4.6780   54.4577 H       1  ZINC001456607258    0.0700
     32 H32       -10.9805   -5.1278   56.7965 H       1  ZINC001456607258    0.0800
     33 H33       -10.1521   -3.9841   55.7128 H       1  ZINC001456607258    0.0900
     34 H34       -10.1544   -5.1476   58.9472 H       1  ZINC001456607258    0.1200
     35 H35        -9.1814   -4.0037   60.8985 H       1  ZINC001456607258    0.1200
     36 H36        -8.7142   -1.5879   60.8028 H       1  ZINC001456607258    0.1200
     37 H37        -9.2193   -0.3163   58.7557 H       1  ZINC001456607258    0.1200
     38 H38       -10.1880   -1.4612   56.8027 H       1  ZINC001456607258    0.1200
     39 H39       -13.6254   -2.2852   58.0786 H       1  ZINC001456607258    0.4000
     40 H40       -15.8284   -3.9203   58.2782 H       1  ZINC001456607258    0.0700
     41 H41       -14.5871   -4.7378   59.2576 H       1  ZINC001456607258    0.0800
     42 H42       -15.8670   -3.2330   60.7648 H       1  ZINC001456607258    0.1100
     43 H43       -13.6586   -2.5553   61.5910 H       1  ZINC001456607258    0.0800
     44 H44       -13.0839   -2.1488   59.9145 H       1  ZINC001456607258    0.0900
     45 H45       -11.8534   -0.6077   61.5096 H       1  ZINC001456607258    0.1700
     46 H46       -10.7495    0.0500   63.6935 H       1  ZINC001456607258    0.4200
     47 H47       -12.2935    1.2822   65.3035 H       1  ZINC001456607258    0.1700
     48 H48       -14.6199    1.4794   64.1133 H       1  ZINC001456607258    0.1500
     49 H49       -15.2234   -1.1425   58.5618 H       1  ZINC001456607258    0.0900
     50 H50       -16.6328   -1.1565   59.7107 H       1  ZINC001456607258    0.0900
@<TRIPOS>BOND
     1     1     2    1
     2     1    27    1
     3     1    28    1
     4     1    29    1
     5     2     3    1
     6     2    30    1
     7     2    31    1
     8     3     4    1
     9     3     5    1
    10     3    12    1
    11     5     6    1
    12     5    32    1
    13     5    33    1
    14     6    11   ar
    15     6     7   ar
    16     7     8   ar
    17     7    34    1
    18     8     9   ar
    19     8    35    1
    20     9    10   ar
    21     9    36    1
    22    10    11   ar
    23    10    37    1
    24    11    38    1
    25    12    13    2
    26    12    14   am
    27    14    15    1
    28    14    39    1
    29    15    16    1
    30    15    40    1
    31    15    41    1
    32    16    26    1
    33    16    17    1
    34    16    42    1
    35    17    18    1
    36    17    43    1
    37    17    44    1
    38    18    19   am
    39    18    26    1
    40    19    20    2
    41    19    21    1
    42    21    25    1
    43    21    22    2
    44    22    23    1
    45    22    45    1
    46    23    24    1
    47    23    46    1
    48    24    25    2
    49    24    47    1
    50    25    48    1
    51    26    49    1
    52    26    50    1
@<TRIPOS>SUBSTRUCTURE
     1 ZINC001456607258        1 TEMP              0 ****  ****    0 ROOT


##########                                Name:    ZINC000912668252
##########                DOCK_Rotatable_Bonds:                  10
##########                         Heavy_Atoms:                  30
##########                    Molecular_Weight:             411.433
##########                DOCK_Rotatable_Bonds:                  10
##########                       Formal_Charge:           0.0199993
##########                     HBond_Acceptors:                   8
##########                        HBond_Donors:                   2
##########                         Heavy_Atoms:                  30
##########                          Grid_Score:          -33.902912
##########                     Grid_vdw_energy:          -33.305313
##########                      Grid_es_energy:           -0.597600
##########           Internal_energy_repulsive:           12.004651

@<TRIPOS>MOLECULE
ZINC000912668252
 52 54 1 0 0
SMALL
USER_CHARGES


@<TRIPOS>ATOM
      1 C1        -11.9101    2.8031   56.8707 C.3     1  ZINC000912668252   -0.1700
      2 C2        -10.4192    3.1097   56.7154 C.3     1  ZINC000912668252    0.1100
      3 N3         -9.6514    2.2884   57.6546 N.am    1  ZINC000912668252   -0.6100
      4 C4         -9.4072    2.7682   59.0171 C.3     1  ZINC000912668252    0.1000
      5 C5        -10.5028    2.2427   59.9469 C.3     1  ZINC000912668252   -0.1800
      6 C6         -9.1697    1.0914   57.2652 C.2     1  ZINC000912668252    0.5600
      7 O7         -8.5325    0.4100   58.0444 O.2     1  ZINC000912668252   -0.5300
      8 C8         -9.4162    0.6072   55.8900 C.ar    1  ZINC000912668252   -0.1100
      9 C9         -8.5477    0.9619   54.8565 C.ar    1  ZINC000912668252   -0.1100
     10 C10        -8.7799    0.5081   53.5739 C.ar    1  ZINC000912668252   -0.1000
     11 C11        -9.8708   -0.2977   53.3077 C.ar    1  ZINC000912668252   -0.1200
     12 C12       -10.7416   -0.6564   54.3300 C.ar    1  ZINC000912668252    0.1400
     13 N13       -11.8446   -1.4730   54.0553 N.am    1  ZINC000912668252   -0.6700
     14 C14       -11.7020   -2.8130   54.0324 C.2     1  ZINC000912668252    0.5200
     15 O15       -10.6178   -3.3113   54.2497 O.2     1  ZINC000912668252   -0.4900
     16 C16       -12.8897   -3.6922   53.7366 C.3     1  ZINC000912668252    0.0500
     17 O17       -12.9159   -4.8014   54.6733 O.3     1  ZINC000912668252   -0.3300
     18 C18       -13.3635   -4.5409   55.9182 C.2     1  ZINC000912668252    0.5400
     19 O19       -14.5531   -4.6014   56.1617 O.2     1  ZINC000912668252   -0.4800
     20 C20       -12.4137   -4.1839   56.9805 C.2     1  ZINC000912668252    0.0400
     21 C21       -12.5738   -3.1712   57.8733 C.2     1  ZINC000912668252   -0.0900
     22 C22       -11.4419   -3.1628   58.7233 C.ar    1  ZINC000912668252   -0.1000
     23 C23       -11.0594   -2.3619   59.8074 C.ar    1  ZINC000912668252   -0.0900
     24 C24        -9.8756   -2.6032   60.4459 C.ar    1  ZINC000912668252    0.0700
     25 F25        -9.5086   -1.8297   61.4910 F       1  ZINC000912668252   -0.1400
     26 C26        -9.0455   -3.6385   60.0293 C.ar    1  ZINC000912668252   -0.1100
     27 C27        -9.4008   -4.4381   58.9660 C.ar    1  ZINC000912668252   -0.1000
     28 C28       -10.6018   -4.2115   58.3000 C.ar    1  ZINC000912668252    0.1100
     29 N29       -11.2178   -4.8275   57.2354 N.pl3   1  ZINC000912668252   -0.5600
     30 C30       -10.5143   -0.2104   55.6224 C.ar    1  ZINC000912668252   -0.0700
     31 H31       -12.4814    3.4141   56.1718 H       1  ZINC000912668252    0.0700
     32 H32       -12.0879    1.7484   56.6606 H       1  ZINC000912668252    0.0600
     33 H33       -12.2232    3.0283   57.8902 H       1  ZINC000912668252    0.0600
     34 H34       -10.1063    2.8844   55.6958 H       1  ZINC000912668252    0.0800
     35 H35       -10.2414    4.1644   56.9254 H       1  ZINC000912668252    0.0900
     36 H36        -8.4367    2.4096   59.3601 H       1  ZINC000912668252    0.0900
     37 H37        -9.4155    3.8582   59.0255 H       1  ZINC000912668252    0.0800
     38 H38       -11.3864    2.8752   59.8610 H       1  ZINC000912668252    0.0600
     39 H39       -10.7586    1.2211   59.6659 H       1  ZINC000912668252    0.0700
     40 H40       -10.1440    2.2575   60.9760 H       1  ZINC000912668252    0.0700
     41 H41        -7.6944    1.5916   55.0604 H       1  ZINC000912668252    0.1400
     42 H42        -8.1070    0.7840   52.7755 H       1  ZINC000912668252    0.1400
     43 H43       -10.0476   -0.6494   52.3020 H       1  ZINC000912668252    0.1300
     44 H44       -12.7117   -1.0745   53.8816 H       1  ZINC000912668252    0.4200
     45 H45       -13.8061   -3.1105   53.8365 H       1  ZINC000912668252    0.1100
     46 H46       -12.8126   -4.0770   52.7197 H       1  ZINC000912668252    0.1100
     47 H47       -13.4136   -2.4942   57.9245 H       1  ZINC000912668252    0.1700
     48 H48       -11.6981   -1.5559   60.1372 H       1  ZINC000912668252    0.1400
     49 H49        -8.1132   -3.8167   60.5444 H       1  ZINC000912668252    0.1400
     50 H50        -8.7492   -5.2391   58.6495 H       1  ZINC000912668252    0.1400
     51 H51       -10.8693   -5.5874   56.7435 H       1  ZINC000912668252    0.4300
     52 H52       -11.1897   -0.4881   56.4181 H       1  ZINC000912668252    0.1400
@<TRIPOS>BOND
     1     1     2    1
     2     1    31    1
     3     1    32    1
     4     1    33    1
     5     2     3    1
     6     2    34    1
     7     2    35    1
     8     3     4    1
     9     3     6   am
    10     4     5    1
    11     4    36    1
    12     4    37    1
    13     5    38    1
    14     5    39    1
    15     5    40    1
    16     6     7    2
    17     6     8    1
    18     8    30   ar
    19     8     9   ar
    20     9    10   ar
    21     9    41    1
    22    10    11   ar
    23    10    42    1
    24    11    12   ar
    25    11    43    1
    26    12    13    1
    27    12    30   ar
    28    13    14   am
    29    13    44    1
    30    14    15    2
    31    14    16    1
    32    16    17    1
    33    16    45    1
    34    16    46    1
    35    17    18    1
    36    18    19    2
    37    18    20    1
    38    20    29    1
    39    20    21    2
    40    21    22    1
    41    21    47    1
    42    22    28   ar
    43    22    23   ar
    44    23    24   ar
    45    23    48    1
    46    24    25    1
    47    24    26   ar
    48    26    27   ar
    49    26    49    1
    50    27    28   ar
    51    27    50    1
    52    28    29    1
    53    29    51    1
    54    30    52    1
@<TRIPOS>SUBSTRUCTURE
     1 ZINC000912668252        1 TEMP              0 ****  ****    0 ROOT


##########                                Name:    ZINC000439870054
##########                DOCK_Rotatable_Bonds:                   5
##########                         Heavy_Atoms:                  27
##########                    Molecular_Weight:             421.974
##########                DOCK_Rotatable_Bonds:                   5
##########                       Formal_Charge:           0.0200003
##########                     HBond_Acceptors:                   9
##########                        HBond_Donors:                   0
##########                         Heavy_Atoms:                  27
##########                          Grid_Score:          -33.894405
##########                     Grid_vdw_energy:          -33.153374
##########                      Grid_es_energy:           -0.741032
##########           Internal_energy_repulsive:           66.535774

@<TRIPOS>MOLECULE
ZINC000439870054
 47 50 1 0 0
SMALL
USER_CHARGES


@<TRIPOS>ATOM
      1 C1        -10.3946   -0.5671   61.0726 C.3     1  ZINC000439870054   -0.1400
      2 C2        -10.4352   -1.5711   59.9189 C.3     1  ZINC000439870054    0.0000
      3 C3         -9.4679   -2.7207   60.2088 C.3     1  ZINC000439870054   -0.1400
      4 C4        -11.8332   -2.1151   59.7752 C.2     1  ZINC000439870054    0.1900
      5 N5        -12.7506   -2.1561   60.7069 N.2     1  ZINC000439870054   -0.2900
      6 N6        -13.8264   -2.6880   60.2357 N.2     1  ZINC000439870054   -0.2700
      7 C7        -13.6406   -3.0083   58.9925 C.2     1  ZINC000439870054    0.1600
      8 C8        -14.6036   -3.6654   58.0334 C.3     1  ZINC000439870054    0.2400
      9 H9        -14.7475   -4.7104   58.3081 H       1  ZINC000439870054    0.1100
     10 C10       -15.9455   -2.9307   58.0556 C.3     1  ZINC000439870054   -0.1300
     11 N11       -14.0010   -3.5763   56.6898 N.am    1  ZINC000439870054   -0.6300
     12 C12       -14.7446   -3.2388   55.6177 C.2     1  ZINC000439870054    0.5300
     13 O13       -15.9270   -3.0031   55.7497 O.2     1  ZINC000439870054   -0.4900
     14 C14       -14.1070   -3.1542   54.2549 C.3     1  ZINC000439870054   -0.0700
     15 C15       -13.2266   -1.9329   54.1871 C.2     1  ZINC000439870054    0.0900
     16 C16       -13.5838   -0.7696   54.7390 C.2     1  ZINC000439870054   -0.2400
     17 S17       -12.2980    0.3995   54.4457 S.3     1  ZINC000439870054    0.1300
     18 C18       -11.3805   -0.8326   53.5831 C.2     1  ZINC000439870054    0.1400
     19 C19       -10.0604   -0.6373   52.9643 C.2     1  ZINC000439870054   -0.1300
     20 C20        -9.3792   -1.5730   52.2678 C.2     1  ZINC000439870054   -0.1000
     21 C21        -8.1593   -1.1544   51.7821 C.2     1  ZINC000439870054   -0.1200
     22 C22        -7.8371    0.1116   52.0738 C.2     1  ZINC000439870054   -0.1500
     23 Cl23       -6.3689    0.9042   51.5942 Cl      1  ZINC000439870054    0.0000
     24 S24        -9.1277    0.8533   53.0100 S.3     1  ZINC000439870054    0.2500
     25 N25       -12.0581   -1.9479   53.5864 N.2     1  ZINC000439870054   -0.4400
     26 C26       -12.5654   -3.8659   56.5536 C.3     1  ZINC000439870054    0.0900
     27 C27       -11.7630   -2.8269   57.3456 C.3     1  ZINC000439870054    0.0900
     28 N28       -12.3754   -2.6455   58.6610 N.pl3   1  ZINC000439870054   -0.4700
     29 H29        -9.3834   -0.1737   61.1766 H       1  ZINC000439870054    0.0700
     30 H30       -11.0837    0.2518   60.8661 H       1  ZINC000439870054    0.0500
     31 H31       -10.6878   -1.0643   61.9973 H       1  ZINC000439870054    0.0700
     32 H32       -10.1419   -1.0741   58.9942 H       1  ZINC000439870054    0.0800
     33 H33        -9.4968   -3.4360   59.3869 H       1  ZINC000439870054    0.0500
     34 H34        -8.4567   -2.3273   60.3127 H       1  ZINC000439870054    0.0700
     35 H35        -9.7612   -3.2177   61.1335 H       1  ZINC000439870054    0.0700
     36 H36       -15.8233   -1.9378   57.6227 H       1  ZINC000439870054    0.0600
     37 H37       -16.6771   -3.4927   57.4750 H       1  ZINC000439870054    0.0900
     38 H38       -16.2921   -2.8381   59.0848 H       1  ZINC000439870054    0.0700
     39 H39       -13.5053   -4.0459   54.0792 H       1  ZINC000439870054    0.1100
     40 H40       -14.8842   -3.0844   53.4938 H       1  ZINC000439870054    0.1200
     41 H41       -14.5031   -0.5785   55.2728 H       1  ZINC000439870054    0.1800
     42 H42        -9.7601   -2.5704   52.1049 H       1  ZINC000439870054    0.1500
     43 H43        -7.5109   -1.8003   51.2086 H       1  ZINC000439870054    0.1600
     44 H44       -12.3564   -4.8620   56.9438 H       1  ZINC000439870054    0.0900
     45 H45       -12.2830   -3.8196   55.5019 H       1  ZINC000439870054    0.1200
     46 H46       -10.7360   -3.1727   57.4639 H       1  ZINC000439870054    0.1100
     47 H47       -11.7690   -1.8770   56.8108 H       1  ZINC000439870054    0.0900
@<TRIPOS>BOND
     1     1     2    1
     2     1    29    1
     3     1    30    1
     4     1    31    1
     5     2     3    1
     6     2     4    1
     7     2    32    1
     8     3    33    1
     9     3    34    1
    10     3    35    1
    11     4    28    1
    12     4     5    2
    13     5     6    1
    14     6     7    2
    15     7    28    1
    16     7     8    1
    17     8     9    1
    18     8    10    1
    19     8    11    1
    20    10    36    1
    21    10    37    1
    22    10    38    1
    23    11    12   am
    24    11    26    1
    25    12    13    2
    26    12    14    1
    27    14    15    1
    28    14    39    1
    29    14    40    1
    30    15    25    1
    31    15    16    2
    32    16    17    1
    33    16    41    1
    34    17    18    1
    35    18    19    1
    36    18    25    2
    37    19    24    1
    38    19    20    2
    39    20    21    1
    40    20    42    1
    41    21    22    2
    42    21    43    1
    43    22    23    1
    44    22    24    1
    45    26    27    1
    46    26    44    1
    47    26    45    1
    48    27    28    1
    49    27    46    1
    50    27    47    1
@<TRIPOS>SUBSTRUCTURE
     1 ZINC000439870054        1 TEMP              0 ****  ****    0 ROOT


##########                                Name:    ZINC000132775118
##########                DOCK_Rotatable_Bonds:                   5
##########                         Heavy_Atoms:                  27
##########                    Molecular_Weight:             376.499
##########                DOCK_Rotatable_Bonds:                   5
##########                       Formal_Charge:        -4.76837e-07
##########                     HBond_Acceptors:                   7
##########                        HBond_Donors:                   1
##########                         Heavy_Atoms:                  27
##########                          Grid_Score:          -33.878033
##########                     Grid_vdw_energy:          -32.653934
##########                      Grid_es_energy:           -1.224097
##########           Internal_energy_repulsive:           22.545427

@<TRIPOS>MOLECULE
ZINC000132775118
 59 62 1 0 0
SMALL
USER_CHARGES


@<TRIPOS>ATOM
      1 O1        -13.8736   -5.0430   56.3101 O.2     1  ZINC000132775118   -0.5200
      2 C2        -12.8714   -4.4112   56.0506 C.2     1  ZINC000132775118    0.5200
      3 C3        -11.7785   -4.2760   57.0794 C.3     1  ZINC000132775118    0.0300
      4 N4        -11.7906   -2.9143   57.6305 N.3     1  ZINC000132775118   -0.5100
      5 C5        -13.1674   -2.4448   57.8445 C.3     1  ZINC000132775118    0.0300
      6 C6        -13.1733   -1.1498   58.6044 C.2     1  ZINC000132775118    0.5300
      7 O7        -14.1917   -0.4912   58.6141 O.2     1  ZINC000132775118   -0.5500
      8 N8        -12.1082   -0.6868   59.2728 N.am    1  ZINC000132775118   -0.7200
      9 C9        -10.8274   -1.3798   59.2572 C.3     1  ZINC000132775118    0.1500
     10 H10       -10.1837   -0.9171   58.5091 H       1  ZINC000132775118    0.0800
     11 C11       -10.1351   -1.3125   60.6166 C.3     1  ZINC000132775118   -0.1300
     12 C12        -8.7714   -2.0030   60.5128 C.3     1  ZINC000132775118   -0.1200
     13 C13        -8.9548   -3.4605   60.0890 C.3     1  ZINC000132775118   -0.1200
     14 C14        -9.6766   -3.5267   58.7393 C.3     1  ZINC000132775118   -0.1200
     15 C15       -11.0394   -2.8498   58.8893 C.3     1  ZINC000132775118    0.0700
     16 H16       -11.6106   -3.3550   59.6680 H       1  ZINC000132775118    0.0600
     17 N17       -12.7326   -3.8350   54.8402 N.am    1  ZINC000132775118   -0.6200
     18 C18       -13.7919   -3.9531   53.8290 C.3     1  ZINC000132775118    0.1100
     19 C19       -14.1743   -2.5494   53.3491 C.3     1  ZINC000132775118   -0.1200
     20 C20       -12.9191   -1.8216   52.8624 C.3     1  ZINC000132775118   -0.1000
     21 C21       -13.2964   -0.4525   52.3579 C.2     1  ZINC000132775118    0.5300
     22 O22       -13.2400    0.5043   53.1009 O.2     1  ZINC000132775118   -0.5300
     23 N23       -13.6964   -0.2916   51.0810 N.am    1  ZINC000132775118   -0.6200
     24 C24       -13.8163   -1.3613   50.0794 C.3     1  ZINC000132775118    0.1000
     25 C25       -14.2808   -0.7054   48.7620 C.3     1  ZINC000132775118   -0.1300
     26 C26       -13.8522    0.7751   48.9408 C.3     1  ZINC000132775118   -0.1300
     27 C27       -14.0925    0.9849   50.4590 C.3     1  ZINC000132775118    0.1000
     28 C28       -11.9268   -1.6830   54.0193 C.3     1  ZINC000132775118   -0.1200
     29 C29       -11.5217   -3.0718   54.5089 C.3     1  ZINC000132775118    0.1200
     30 H30       -11.9442   -4.9944   57.8821 H       1  ZINC000132775118    0.0700
     31 H31       -10.8132   -4.4700   56.6116 H       1  ZINC000132775118    0.1200
     32 H32       -13.6506   -2.2967   56.8787 H       1  ZINC000132775118    0.1300
     33 H33       -13.7192   -3.1957   58.4100 H       1  ZINC000132775118    0.0700
     34 H34       -12.1927    0.1346   59.7820 H       1  ZINC000132775118    0.4000
     35 H35        -9.9957   -0.2704   60.9042 H       1  ZINC000132775118    0.0800
     36 H36       -10.7458   -1.8205   61.3629 H       1  ZINC000132775118    0.0700
     37 H37        -8.1592   -1.4858   59.7739 H       1  ZINC000132775118    0.0700
     38 H38        -8.2733   -1.9678   61.4817 H       1  ZINC000132775118    0.0700
     39 H39        -7.9786   -3.9373   60.0010 H       1  ZINC000132775118    0.0700
     40 H40        -9.5450   -3.9843   60.8410 H       1  ZINC000132775118    0.0600
     41 H41        -9.0838   -3.0126   57.9827 H       1  ZINC000132775118    0.0800
     42 H42        -9.8164   -4.5684   58.4508 H       1  ZINC000132775118    0.0700
     43 H43       -13.4286   -4.5411   52.9861 H       1  ZINC000132775118    0.0800
     44 H44       -14.6634   -4.4392   54.2677 H       1  ZINC000132775118    0.0900
     45 H45       -14.8900   -2.6271   52.5308 H       1  ZINC000132775118    0.0800
     46 H46       -14.6213   -1.9926   54.1726 H       1  ZINC000132775118    0.0800
     47 H47       -12.4585   -2.3917   52.0556 H       1  ZINC000132775118    0.0900
     48 H48       -12.8491   -1.8422   49.9332 H       1  ZINC000132775118    0.0700
     49 H49       -14.5520   -2.0955   50.4074 H       1  ZINC000132775118    0.0700
     50 H50       -13.7727   -1.1534   47.9081 H       1  ZINC000132775118    0.0800
     51 H51       -15.3626   -0.7832   48.6529 H       1  ZINC000132775118    0.0800
     52 H52       -12.8013    0.9111   48.6858 H       1  ZINC000132775118    0.0800
     53 H53       -14.4848    1.4389   48.3515 H       1  ZINC000132775118    0.0900
     54 H54       -15.1445    1.1963   50.6509 H       1  ZINC000132775118    0.0700
     55 H55       -13.4674    1.7955   50.8335 H       1  ZINC000132775118    0.0800
     56 H56       -11.0430   -1.1440   53.6780 H       1  ZINC000132775118    0.0800
     57 H57       -12.3950   -1.1343   54.8365 H       1  ZINC000132775118    0.0800
     58 H58       -10.8934   -2.9781   55.3947 H       1  ZINC000132775118    0.1000
     59 H59       -10.9734   -3.5908   53.7227 H       1  ZINC000132775118    0.0700
@<TRIPOS>BOND
     1     1     2    2
     2     2     3    1
     3     2    17   am
     4     3     4    1
     5     3    30    1
     6     3    31    1
     7     4    15    1
     8     4     5    1
     9     5     6    1
    10     5    32    1
    11     5    33    1
    12     6     7    2
    13     6     8   am
    14     8     9    1
    15     8    34    1
    16     9    10    1
    17     9    15    1
    18     9    11    1
    19    11    12    1
    20    11    35    1
    21    11    36    1
    22    12    13    1
    23    12    37    1
    24    12    38    1
    25    13    14    1
    26    13    39    1
    27    13    40    1
    28    14    15    1
    29    14    41    1
    30    14    42    1
    31    15    16    1
    32    17    29    1
    33    17    18    1
    34    18    19    1
    35    18    43    1
    36    18    44    1
    37    19    20    1
    38    19    45    1
    39    19    46    1
    40    20    21    1
    41    20    28    1
    42    20    47    1
    43    21    22    2
    44    21    23   am
    45    23    27    1
    46    23    24    1
    47    24    25    1
    48    24    48    1
    49    24    49    1
    50    25    26    1
    51    25    50    1
    52    25    51    1
    53    26    27    1
    54    26    52    1
    55    26    53    1
    56    27    54    1
    57    27    55    1
    58    28    29    1
    59    28    56    1
    60    28    57    1
    61    29    58    1
    62    29    59    1
@<TRIPOS>SUBSTRUCTURE
     1 ZINC000132775118        1 TEMP              0 ****  ****    0 ROOT


##########                                Name:    ZINC001041713551
##########                DOCK_Rotatable_Bonds:                  10
##########                         Heavy_Atoms:                  22
##########                    Molecular_Weight:             330.448
##########                DOCK_Rotatable_Bonds:                  10
##########                       Formal_Charge:          -0.0100006
##########                     HBond_Acceptors:                   7
##########                        HBond_Donors:                   2
##########                         Heavy_Atoms:                  22
##########                          Grid_Score:          -33.823544
##########                     Grid_vdw_energy:          -30.122972
##########                      Grid_es_energy:           -3.700572
##########           Internal_energy_repulsive:            6.256791

@<TRIPOS>MOLECULE
ZINC001041713551
 48 49 1 0 0
SMALL
USER_CHARGES


@<TRIPOS>ATOM
      1 C1         -0.7319    1.8998   64.4272 C.3     1  ZINC001041713551   -0.1500
      2 C2         -1.5603    2.8499   63.5599 C.3     1  ZINC001041713551   -0.1100
      3 C3         -2.7634    2.0987   62.9864 C.3     1  ZINC001041713551   -0.1000
      4 S4         -4.2728    2.6338   63.8385 S.3     1  ZINC001041713551   -0.1800
      5 C5         -4.3559    1.5142   65.2633 C.3     1  ZINC001041713551   -0.1300
      6 C6         -5.7825    1.4099   65.7377 C.2     1  ZINC001041713551    0.5300
      7 O7         -6.0182    1.1904   66.9069 O.2     1  ZINC001041713551   -0.5100
      8 N8         -6.7964    1.5604   64.8625 N.am    1  ZINC001041713551   -0.7300
      9 C9         -8.1832    1.4607   65.3240 C.3     1  ZINC001041713551    0.1000
     10 C10        -8.8692    0.2839   64.6273 C.3     1  ZINC001041713551    0.0900
     11 O11        -8.8053   -0.9262   65.3848 O.3     1  ZINC001041713551   -0.5200
     12 C12       -10.2766    0.6123   64.0970 C.3     1  ZINC001041713551    0.0900
     13 N13        -9.8909   -0.1482   62.8925 N.am    1  ZINC001041713551   -0.6400
     14 C14       -10.5706   -0.8146   61.9383 C.2     1  ZINC001041713551    0.5500
     15 O15       -11.7817   -0.8645   61.9794 O.2     1  ZINC001041713551   -0.5100
     16 C16        -9.8258   -1.4977   60.8204 C.3     1  ZINC001041713551    0.0800
     17 H17        -8.7529   -1.3951   60.9826 H       1  ZINC001041713551    0.0800
     18 C18       -10.2043   -0.8515   59.4852 C.3     1  ZINC001041713551   -0.1500
     19 C19        -9.4900   -1.5897   58.3489 C.3     1  ZINC001041713551   -0.1200
     20 C20        -9.8654   -3.0737   58.4036 C.3     1  ZINC001041713551   -0.1600
     21 C21        -9.5000   -3.6341   59.7806 C.3     1  ZINC001041713551    0.0600
     22 O22       -10.1734   -2.8835   60.7931 O.3     1  ZINC001041713551   -0.3600
     23 C23        -8.4620    0.1140   63.1524 C.3     1  ZINC001041713551    0.1200
     24 H24        -0.3830    1.0646   63.8200 H       1  ZINC001041713551    0.0600
     25 H25         0.1252    2.4351   64.8358 H       1  ZINC001041713551    0.0600
     26 H26        -1.3478    1.5230   65.2437 H       1  ZINC001041713551    0.0600
     27 H27        -1.9093    3.6851   64.1672 H       1  ZINC001041713551    0.0700
     28 H28        -0.9444    3.2267   62.7434 H       1  ZINC001041713551    0.0700
     29 H29        -2.8519    2.3134   61.9214 H       1  ZINC001041713551    0.0800
     30 H30        -2.6252    1.0272   63.1308 H       1  ZINC001041713551    0.0800
     31 H31        -3.9971    0.5272   64.9711 H       1  ZINC001041713551    0.1100
     32 H32        -3.7328    1.9036   66.0683 H       1  ZINC001041713551    0.1100
     33 H33        -6.6078    1.7347   63.9271 H       1  ZINC001041713551    0.4000
     34 H34        -8.1968    1.3026   66.4024 H       1  ZINC001041713551    0.0900
     35 H35        -8.7128    2.3830   65.0853 H       1  ZINC001041713551    0.0900
     36 H36        -9.2831   -1.6659   64.9853 H       1  ZINC001041713551    0.3800
     37 H37       -11.0808    0.1502   64.6696 H       1  ZINC001041713551    0.0900
     38 H38       -10.4398    1.6741   63.9125 H       1  ZINC001041713551    0.1000
     39 H39       -11.2828   -0.9176   59.3412 H       1  ZINC001041713551    0.0800
     40 H40        -9.8998    0.1952   59.4877 H       1  ZINC001041713551    0.0800
     41 H41        -9.7986   -1.1706   57.3911 H       1  ZINC001041713551    0.0700
     42 H42        -8.4116   -1.4819   58.4651 H       1  ZINC001041713551    0.0700
     43 H43       -10.9370   -3.1848   58.2378 H       1  ZINC001041713551    0.0700
     44 H44        -9.3185   -3.6165   57.6326 H       1  ZINC001041713551    0.0800
     45 H45        -9.8040   -4.6792   59.8401 H       1  ZINC001041713551    0.1000
     46 H46        -8.4228   -3.5597   59.9291 H       1  ZINC001041713551    0.0500
     47 H47        -8.0922    1.0294   62.6905 H       1  ZINC001041713551    0.1100
     48 H48        -7.8174   -0.7461   62.9709 H       1  ZINC001041713551    0.1000
@<TRIPOS>BOND
     1     1     2    1
     2     1    24    1
     3     1    25    1
     4     1    26    1
     5     2     3    1
     6     2    27    1
     7     2    28    1
     8     3     4    1
     9     3    29    1
    10     3    30    1
    11     4     5    1
    12     5     6    1
    13     5    31    1
    14     5    32    1
    15     6     7    2
    16     6     8   am
    17     8     9    1
    18     8    33    1
    19     9    10    1
    20     9    34    1
    21     9    35    1
    22    10    23    1
    23    10    11    1
    24    10    12    1
    25    11    36    1
    26    12    13    1
    27    12    37    1
    28    12    38    1
    29    13    14   am
    30    13    23    1
    31    14    15    2
    32    14    16    1
    33    16    17    1
    34    16    22    1
    35    16    18    1
    36    18    19    1
    37    18    39    1
    38    18    40    1
    39    19    20    1
    40    19    41    1
    41    19    42    1
    42    20    21    1
    43    20    43    1
    44    20    44    1
    45    21    22    1
    46    21    45    1
    47    21    46    1
    48    23    47    1
    49    23    48    1
@<TRIPOS>SUBSTRUCTURE
     1 ZINC001041713551        1 TEMP              0 ****  ****    0 ROOT


##########                                Name:    ZINC000179496896
##########                DOCK_Rotatable_Bonds:                   8
##########                         Heavy_Atoms:                  27
##########                    Molecular_Weight:             396.504
##########                DOCK_Rotatable_Bonds:                   8
##########                       Formal_Charge:          0.00999944
##########                     HBond_Acceptors:                   8
##########                        HBond_Donors:                   1
##########                         Heavy_Atoms:                  27
##########                          Grid_Score:          -33.813961
##########                     Grid_vdw_energy:          -33.353115
##########                      Grid_es_energy:           -0.460845
##########           Internal_energy_repulsive:           21.116665

@<TRIPOS>MOLECULE
ZINC000179496896
 53 55 1 0 0
SMALL
USER_CHARGES


@<TRIPOS>ATOM
      1 C1         -3.5216    2.5409   49.8170 C.3     1  ZINC000179496896   -0.1500
      2 C2         -4.4538    1.8187   50.7917 C.3     1  ZINC000179496896   -0.1100
      3 C3         -4.2823    2.4082   52.1932 C.3     1  ZINC000179496896   -0.1400
      4 C4         -5.9039    1.9968   50.3375 C.3     1  ZINC000179496896    0.1200
      5 N5         -6.7561    1.0300   51.0341 N.pl3   1  ZINC000179496896   -0.3300
      6 N6         -6.4316   -0.3056   51.2972 N.2     1  ZINC000179496896   -0.2700
      7 C7         -7.4243   -0.8643   51.9327 C.2     1  ZINC000179496896    0.0800
      8 C8         -8.4364    0.1068   52.1027 C.2     1  ZINC000179496896   -0.2500
      9 C9         -9.7360   -0.0912   52.7700 C.2     1  ZINC000179496896    0.5900
     10 O10       -10.4371   -1.0377   52.4675 O.2     1  ZINC000179496896   -0.5300
     11 N11       -10.1473    0.7768   53.7155 N.am    1  ZINC000179496896   -0.7100
     12 C12       -11.4395    0.5810   54.3774 C.3     1  ZINC000179496896    0.1300
     13 C13       -11.2559    0.6783   55.8932 C.3     1  ZINC000179496896    0.0700
     14 H14       -10.5584    1.4836   56.1238 H       1  ZINC000179496896    0.0900
     15 C15       -12.6056    0.9681   56.5529 C.3     1  ZINC000179496896   -0.1900
     16 N16       -10.7236   -0.5918   56.4046 N.3     1  ZINC000179496896   -0.5300
     17 C17       -11.7636   -1.6303   56.4208 C.3     1  ZINC000179496896    0.0600
     18 C18       -11.0983   -3.0043   56.5672 C.3     1  ZINC000179496896   -0.0400
     19 C19       -10.1085   -2.9274   57.7104 C.2     1  ZINC000179496896   -0.1700
     20 C20        -9.6641   -1.7728   58.2454 C.2     1  ZINC000179496896   -0.1100
     21 C21        -8.7611   -1.9519   59.2870 C.2     1  ZINC000179496896   -0.1200
     22 C22        -8.4765   -3.2149   59.5918 C.2     1  ZINC000179496896   -0.2200
     23 S23        -9.3738   -4.2938   58.5329 S.3     1  ZINC000179496896    0.1000
     24 C24       -10.1255   -0.4146   57.7346 C.3     1  ZINC000179496896    0.1200
     25 C25        -7.9778    1.2775   51.5328 C.2     1  ZINC000179496896    0.0700
     26 C26        -8.7169    2.5894   51.4725 C.3     1  ZINC000179496896    0.3400
     27 F27       -10.0786    2.3483   51.2604 F       1  ZINC000179496896   -0.1500
     28 F28        -8.5475    3.2760   52.6796 F       1  ZINC000179496896   -0.2000
     29 H29        -2.4885    2.4141   50.1407 H       1  ZINC000179496896    0.0600
     30 H30        -3.6438    2.1209   48.8187 H       1  ZINC000179496896    0.0600
     31 H31        -3.7683    3.6025   49.7973 H       1  ZINC000179496896    0.0600
     32 H32        -4.2070    0.7571   50.8115 H       1  ZINC000179496896    0.0800
     33 H33        -4.5292    3.4697   52.1734 H       1  ZINC000179496896    0.0600
     34 H34        -4.9465    1.8936   52.8876 H       1  ZINC000179496896    0.0600
     35 H35        -3.2493    2.2813   52.5169 H       1  ZINC000179496896    0.0700
     36 H36        -6.2362    3.0084   50.5709 H       1  ZINC000179496896    0.1000
     37 H37        -5.9707    1.8315   49.2622 H       1  ZINC000179496896    0.1000
     38 H38        -7.4656   -1.8896   52.2695 H       1  ZINC000179496896    0.2000
     39 H39        -9.5876    1.5312   53.9577 H       1  ZINC000179496896    0.4100
     40 H40       -12.1376    1.3496   54.0459 H       1  ZINC000179496896    0.0700
     41 H41       -11.8334   -0.4025   54.1215 H       1  ZINC000179496896    0.0700
     42 H42       -12.4748    1.0374   57.6328 H       1  ZINC000179496896    0.0600
     43 H43       -13.0006    1.9105   56.1734 H       1  ZINC000179496896    0.0700
     44 H44       -13.3031    0.1628   56.3223 H       1  ZINC000179496896    0.0600
     45 H45       -12.4360   -1.4596   57.2616 H       1  ZINC000179496896    0.0400
     46 H46       -12.3277   -1.5959   55.4888 H       1  ZINC000179496896    0.0900
     47 H47       -11.8546   -3.7583   56.7850 H       1  ZINC000179496896    0.0800
     48 H48       -10.5766   -3.2607   55.6451 H       1  ZINC000179496896    0.0900
     49 H49        -8.3190   -1.1195   59.8143 H       1  ZINC000179496896    0.1400
     50 H50        -7.7980   -3.5297   60.3709 H       1  ZINC000179496896    0.1600
     51 H51        -9.2717    0.2595   57.6649 H       1  ZINC000179496896    0.0900
     52 H52       -10.8675    0.0001   58.4170 H       1  ZINC000179496896    0.0500
     53 H53        -8.3227    3.1914   50.6538 H       1  ZINC000179496896    0.1300
@<TRIPOS>BOND
     1     1     2    1
     2     1    29    1
     3     1    30    1
     4     1    31    1
     5     2     3    1
     6     2     4    1
     7     2    32    1
     8     3    33    1
     9     3    34    1
    10     3    35    1
    11     4     5    1
    12     4    36    1
    13     4    37    1
    14     5    25    1
    15     5     6    1
    16     6     7    2
    17     7     8    1
    18     7    38    1
    19     8     9    1
    20     8    25    2
    21     9    10    2
    22     9    11   am
    23    11    12    1
    24    11    39    1
    25    12    13    1
    26    12    40    1
    27    12    41    1
    28    13    14    1
    29    13    15    1
    30    13    16    1
    31    15    42    1
    32    15    43    1
    33    15    44    1
    34    16    24    1
    35    16    17    1
    36    17    18    1
    37    17    45    1
    38    17    46    1
    39    18    19    1
    40    18    47    1
    41    18    48    1
    42    19    23    1
    43    19    20    2
    44    20    21    1
    45    20    24    1
    46    21    22    2
    47    21    49    1
    48    22    23    1
    49    22    50    1
    50    24    51    1
    51    24    52    1
    52    25    26    1
    53    26    27    1
    54    26    28    1
    55    26    53    1
@<TRIPOS>SUBSTRUCTURE
     1 ZINC000179496896        1 TEMP              0 ****  ****    0 ROOT


##########                                Name:    ZINC000863208514
##########                DOCK_Rotatable_Bonds:                   6
##########                         Heavy_Atoms:                  19
##########                    Molecular_Weight:             368.657
##########                DOCK_Rotatable_Bonds:                   6
##########                       Formal_Charge:           0.0100005
##########                     HBond_Acceptors:                   7
##########                        HBond_Donors:                   2
##########                         Heavy_Atoms:                  19
##########                          Grid_Score:          -33.807339
##########                     Grid_vdw_energy:          -28.087793
##########                      Grid_es_energy:           -5.719545
##########           Internal_energy_repulsive:            9.965458

@<TRIPOS>MOLECULE
ZINC000863208514
 31 31 1 0 0
SMALL
USER_CHARGES


@<TRIPOS>ATOM
      1 C1         -7.8743    2.1355   65.3840 C.3     1  ZINC000863208514    0.0900
      2 N2         -8.0024    0.8308   66.0378 N.am    1  ZINC000863208514   -0.6100
      3 C3         -7.8940    0.7280   67.4951 C.3     1  ZINC000863208514    0.0700
      4 C4         -8.2199   -0.2750   65.2985 C.2     1  ZINC000863208514    0.5100
      5 O5         -8.3275   -1.3549   65.8398 O.2     1  ZINC000863208514   -0.5400
      6 C6         -8.3295   -0.1692   63.7992 C.3     1  ZINC000863208514    0.1100
      7 N7         -9.7404   -0.0634   63.4190 N.am    1  ZINC000863208514   -0.6600
      8 C8        -10.1535   -0.5320   62.2247 C.2     1  ZINC000863208514    0.5600
      9 S9        -11.8025   -0.4102   61.7813 S.2     1  ZINC000863208514   -0.6000
     10 N10        -9.2683   -1.0965   61.3796 N.am    1  ZINC000863208514   -0.6300
     11 C11        -9.6975   -1.5835   60.1386 C.ar    1  ZINC000863208514    0.1200
     12 C12        -9.7700   -2.9511   59.9158 C.ar    1  ZINC000863208514   -0.0300
     13 C13       -10.1945   -3.4294   58.6897 C.ar    1  ZINC000863208514   -0.0200
     14 Cl14      -10.2859   -5.1404   58.4108 Cl      1  ZINC000863208514   -0.0300
     15 C15       -10.5473   -2.5454   57.6846 C.ar    1  ZINC000863208514   -0.0600
     16 Br16      -11.1274   -3.2036   56.0095 Br      1  ZINC000863208514   -0.0100
     17 C17       -10.4767   -1.1808   57.9035 C.ar    1  ZINC000863208514   -0.1100
     18 C18       -10.0574   -0.6971   59.1289 C.ar    1  ZINC000863208514    0.1100
     19 F19        -9.9886    0.6352   59.3424 F       1  ZINC000863208514   -0.1200
     20 H20        -7.7029    2.9042   66.1375 H       1  ZINC000863208514    0.0800
     21 H21        -7.0341    2.1133   64.6900 H       1  ZINC000863208514    0.0700
     22 H22        -8.7906    2.3599   64.8380 H       1  ZINC000863208514    0.0700
     23 H23        -8.8813    0.8449   67.9420 H       1  ZINC000863208514    0.0700
     24 H24        -7.4880   -0.2479   67.7613 H       1  ZINC000863208514    0.0800
     25 H25        -7.2322    1.5104   67.8664 H       1  ZINC000863208514    0.0800
     26 H26        -7.7937    0.7162   63.4573 H       1  ZINC000863208514    0.1200
     27 H27        -7.8950   -1.0569   63.3396 H       1  ZINC000863208514    0.1200
     28 H28       -10.3772    0.3440   64.0268 H       1  ZINC000863208514    0.4100
     29 H29        -8.3339   -1.1656   61.6309 H       1  ZINC000863208514    0.4200
     30 H30        -9.4947   -3.6416   60.6992 H       1  ZINC000863208514    0.1800
     31 H31       -10.7524   -0.4932   57.1176 H       1  ZINC000863208514    0.1600
@<TRIPOS>BOND
     1     1     2    1
     2     1    20    1
     3     1    21    1
     4     1    22    1
     5     2     3    1
     6     2     4   am
     7     3    23    1
     8     3    24    1
     9     3    25    1
    10     4     5    2
    11     4     6    1
    12     6     7    1
    13     6    26    1
    14     6    27    1
    15     7     8   am
    16     7    28    1
    17     8     9    2
    18     8    10   am
    19    10    11    1
    20    10    29    1
    21    11    18   ar
    22    11    12   ar
    23    12    13   ar
    24    12    30    1
    25    13    14    1
    26    13    15   ar
    27    15    16    1
    28    15    17   ar
    29    17    18   ar
    30    17    31    1
    31    18    19    1
@<TRIPOS>SUBSTRUCTURE
     1 ZINC000863208514        1 TEMP              0 ****  ****    0 ROOT


##########                                Name:    ZINC000680410869
##########                DOCK_Rotatable_Bonds:                   6
##########                         Heavy_Atoms:                  24
##########                    Molecular_Weight:             335.354
##########                DOCK_Rotatable_Bonds:                   6
##########                       Formal_Charge:        -1.04308e-07
##########                     HBond_Acceptors:                   7
##########                        HBond_Donors:                   0
##########                         Heavy_Atoms:                  24
##########                          Grid_Score:          -33.803162
##########                     Grid_vdw_energy:          -32.099724
##########                      Grid_es_energy:           -1.703437
##########           Internal_energy_repulsive:            8.688021

@<TRIPOS>MOLECULE
ZINC000680410869
 43 45 1 0 0
SMALL
USER_CHARGES


@<TRIPOS>ATOM
      1 O1         -9.4308   -5.1820   57.9859 O.2     1  ZINC000680410869   -0.5200
      2 C2        -10.1812   -4.2338   57.8603 C.2     1  ZINC000680410869    0.6100
      3 C3        -11.2152   -4.2449   56.8056 C.2     1  ZINC000680410869    0.0100
      4 N4        -11.0694   -3.8396   55.5599 N.2     1  ZINC000680410869   -0.2500
      5 N5        -12.1704   -3.9908   54.9153 N.pl3   1  ZINC000680410869   -0.3500
      6 C6        -12.3703   -3.6450   53.5058 C.3     1  ZINC000680410869    0.5000
      7 F7        -13.1471   -2.4849   53.4159 F       1  ZINC000680410869   -0.1600
      8 F8        -11.1292   -3.4234   52.8994 F       1  ZINC000680410869   -0.1700
      9 C9        -13.1165   -4.5148   55.7237 C.2     1  ZINC000680410869    0.0100
     10 C10       -12.5490   -4.6982   56.9388 C.2     1  ZINC000680410869   -0.1700
     11 N11       -10.0731   -3.1748   58.6870 N.am    1  ZINC000680410869   -0.6000
     12 C12        -9.0510   -3.1409   59.7451 C.3     1  ZINC000680410869    0.0800
     13 C13        -9.7358   -2.7772   61.0674 C.3     1  ZINC000680410869    0.0500
     14 O14       -10.5033   -1.5845   60.8876 O.3     1  ZINC000680410869   -0.3700
     15 C15       -11.5647   -1.7090   59.9381 C.3     1  ZINC000680410869    0.0800
     16 H16       -12.2293   -2.5190   60.2391 H       1  ZINC000680410869    0.0600
     17 C17       -12.3516   -0.3984   59.8764 C.3     1  ZINC000680410869   -0.1000
     18 C18       -13.5679   -0.4898   60.8002 C.3     1  ZINC000680410869   -0.0800
     19 C19       -14.6758   -1.2336   60.0999 C.ar    1  ZINC000680410869   -0.0800
     20 C20       -15.5285   -0.5595   59.2458 C.ar    1  ZINC000680410869   -0.1200
     21 C21       -16.5448   -1.2418   58.6035 C.ar    1  ZINC000680410869   -0.1200
     22 C22       -16.7081   -2.5981   58.8148 C.ar    1  ZINC000680410869   -0.1300
     23 C23       -15.8548   -3.2722   59.6683 C.ar    1  ZINC000680410869   -0.1200
     24 C24       -14.8359   -2.5909   60.3073 C.ar    1  ZINC000680410869   -0.1200
     25 C25       -10.9698   -2.0157   58.5542 C.3     1  ZINC000680410869    0.0600
     26 H26       -12.8809   -4.4643   52.9997 H       1  ZINC000680410869    0.1700
     27 H27       -14.1350   -4.7482   55.4505 H       1  ZINC000680410869    0.1900
     28 H28       -13.0173   -5.1005   57.8250 H       1  ZINC000680410869    0.1700
     29 H29        -8.5805   -4.1202   59.8325 H       1  ZINC000680410869    0.1000
     30 H30        -8.2974   -2.3913   59.5035 H       1  ZINC000680410869    0.0800
     31 H31       -10.3937   -3.5909   61.3725 H       1  ZINC000680410869    0.0600
     32 H32        -8.9801   -2.6115   61.8353 H       1  ZINC000680410869    0.1100
     33 H33       -11.7128    0.4245   60.1971 H       1  ZINC000680410869    0.0800
     34 H34       -12.6847   -0.2224   58.8536 H       1  ZINC000680410869    0.0800
     35 H35       -13.2929   -1.0211   61.7114 H       1  ZINC000680410869    0.0700
     36 H36       -13.9078    0.5143   61.0536 H       1  ZINC000680410869    0.0800
     37 H37       -15.4009    0.5001   59.0806 H       1  ZINC000680410869    0.1200
     38 H38       -17.2114   -0.7150   57.9366 H       1  ZINC000680410869    0.1200
     39 H39       -17.5025   -3.1309   58.3135 H       1  ZINC000680410869    0.1200
     40 H40       -15.9826   -4.3319   59.8337 H       1  ZINC000680410869    0.1200
     41 H41       -14.1692   -3.1175   60.9741 H       1  ZINC000680410869    0.1200
     42 H42       -10.4110   -1.1515   58.1953 H       1  ZINC000680410869    0.0800
     43 H43       -11.7714   -2.2518   57.8543 H       1  ZINC000680410869    0.1300
@<TRIPOS>BOND
     1     1     2    2
     2     2     3    1
     3     2    11   am
     4     3    10    1
     5     3     4    2
     6     4     5    1
     7     5     6    1
     8     5     9    1
     9     6     7    1
    10     6     8    1
    11     6    26    1
    12     9    10    2
    13     9    27    1
    14    10    28    1
    15    11    25    1
    16    11    12    1
    17    12    13    1
    18    12    29    1
    19    12    30    1
    20    13    14    1
    21    13    31    1
    22    13    32    1
    23    14    15    1
    24    15    16    1
    25    15    17    1
    26    15    25    1
    27    17    18    1
    28    17    33    1
    29    17    34    1
    30    18    19    1
    31    18    35    1
    32    18    36    1
    33    19    24   ar
    34    19    20   ar
    35    20    21   ar
    36    20    37    1
    37    21    22   ar
    38    21    38    1
    39    22    23   ar
    40    22    39    1
    41    23    24   ar
    42    23    40    1
    43    24    41    1
    44    25    42    1
    45    25    43    1
@<TRIPOS>SUBSTRUCTURE
     1 ZINC000680410869        1 TEMP              0 ****  ****    0 ROOT


##########                                Name:    ZINC001016082614
##########                DOCK_Rotatable_Bonds:                   6
##########                         Heavy_Atoms:                  25
##########                    Molecular_Weight:             348.402
##########                DOCK_Rotatable_Bonds:                   6
##########                       Formal_Charge:         -0.00999998
##########                     HBond_Acceptors:                   8
##########                        HBond_Donors:                   1
##########                         Heavy_Atoms:                  25
##########                          Grid_Score:          -33.716026
##########                     Grid_vdw_energy:          -31.701656
##########                      Grid_es_energy:           -2.014371
##########           Internal_energy_repulsive:           30.170727

@<TRIPOS>MOLECULE
ZINC001016082614
 49 51 1 0 0
SMALL
USER_CHARGES


@<TRIPOS>ATOM
      1 C1         -9.9186    0.2867   62.7628 C.3     1  ZINC001016082614   -0.1700
      2 C2        -10.7854    0.6658   61.5604 C.3     1  ZINC001016082614    0.1000
      3 N3        -11.3252   -0.5491   60.9450 N.am    1  ZINC001016082614   -0.6100
      4 C4        -12.5922   -0.9296   61.2031 C.2     1  ZINC001016082614    0.6100
      5 O5        -13.0406   -1.9387   60.6919 O.2     1  ZINC001016082614   -0.5100
      6 C6        -13.4309   -0.1268   62.1003 C.2     1  ZINC001016082614   -0.1100
      7 C7        -14.5210    0.6132   61.7499 C.2     1  ZINC001016082614    0.0600
      8 N8        -14.9919    1.1852   62.8628 N.2     1  ZINC001016082614   -0.4900
      9 C9        -14.2432    0.8304   63.8726 C.2     1  ZINC001016082614    0.2000
     10 O10       -13.2757    0.0176   63.4370 O.3     1  ZINC001016082614   -0.1900
     11 C11       -10.4878   -1.3507   60.0491 C.3     1  ZINC001016082614    0.1600
     12 H12        -9.4755   -0.9472   60.0704 H       1  ZINC001016082614    0.0800
     13 C13       -10.4497   -2.7827   60.5739 C.3     1  ZINC001016082614   -0.1300
     14 C14        -9.1720   -3.4467   60.1231 C.3     1  ZINC001016082614   -0.1300
     15 C15        -9.3982   -4.1770   58.7869 C.3     1  ZINC001016082614    0.1000
     16 N16       -10.2451   -3.3971   57.8631 N.am    1  ZINC001016082614   -0.6000
     17 C17       -11.1977   -4.0413   57.1602 C.2     1  ZINC001016082614    0.5000
     18 O18       -11.3451   -5.2376   57.2937 O.2     1  ZINC001016082614   -0.5200
     19 C19       -12.0796   -3.2749   56.2083 C.3     1  ZINC001016082614    0.1100
     20 H20       -12.1464   -2.2310   56.5145 H       1  ZINC001016082614    0.1100
     21 C21       -13.4877   -3.9082   56.1568 C.3     1  ZINC001016082614   -0.1200
     22 C22       -13.3579   -4.8674   54.9510 C.3     1  ZINC001016082614   -0.1600
     23 C23       -12.2518   -4.2637   54.1139 C.2     1  ZINC001016082614    0.5300
     24 O24       -12.0259   -4.5430   52.9555 O.2     1  ZINC001016082614   -0.5300
     25 N25       -11.5548   -3.3706   54.8411 N.am    1  ZINC001016082614   -0.7100
     26 C26       -10.0952   -1.9707   57.6816 C.3     1  ZINC001016082614    0.1300
     27 C27       -11.0127   -1.2235   58.6809 C.3     1  ZINC001016082614   -0.1600
     28 H28        -9.5171    1.1906   63.2207 H       1  ZINC001016082614    0.0700
     29 H29       -10.5243   -0.2517   63.4919 H       1  ZINC001016082614    0.0500
     30 H30        -9.0972   -0.3491   62.4325 H       1  ZINC001016082614    0.0600
     31 H31       -11.6069    1.3016   61.8907 H       1  ZINC001016082614    0.0900
     32 H32       -10.1799    1.2042   60.8313 H       1  ZINC001016082614    0.0900
     33 H33       -14.9290    0.7184   60.7555 H       1  ZINC001016082614    0.2000
     34 H34       -14.3860    1.1408   64.8972 H       1  ZINC001016082614    0.2600
     35 H35       -10.4893   -2.7721   61.6631 H       1  ZINC001016082614    0.0700
     36 H36       -11.3041   -3.3359   60.1838 H       1  ZINC001016082614    0.0800
     37 H37        -8.3974   -2.6905   59.9950 H       1  ZINC001016082614    0.0700
     38 H38        -8.8520   -4.1649   60.8780 H       1  ZINC001016082614    0.0800
     39 H39        -8.4327   -4.3580   58.3145 H       1  ZINC001016082614    0.0700
     40 H40        -9.8790   -5.1352   58.9843 H       1  ZINC001016082614    0.0800
     41 H41       -13.7012   -4.4593   57.0725 H       1  ZINC001016082614    0.1000
     42 H42       -14.2495   -3.1507   55.9725 H       1  ZINC001016082614    0.1000
     43 H43       -13.0804   -5.8666   55.2865 H       1  ZINC001016082614    0.1100
     44 H44       -14.2898   -4.8986   54.3864 H       1  ZINC001016082614    0.1100
     45 H45       -10.8035   -2.8577   54.5043 H       1  ZINC001016082614    0.4200
     46 H46        -9.0571   -1.6894   57.8590 H       1  ZINC001016082614    0.0800
     47 H47       -10.3741   -1.7033   56.6624 H       1  ZINC001016082614    0.0900
     48 H48       -12.0161   -1.6467   58.6352 H       1  ZINC001016082614    0.0900
     49 H49       -11.0563   -0.1683   58.4111 H       1  ZINC001016082614    0.0700
@<TRIPOS>BOND
     1     1     2    1
     2     1    28    1
     3     1    29    1
     4     1    30    1
     5     2     3    1
     6     2    31    1
     7     2    32    1
     8     3     4   am
     9     3    11    1
    10     4     5    2
    11     4     6    1
    12     6    10    1
    13     6     7    2
    14     7     8    1
    15     7    33    1
    16     8     9    2
    17     9    10    1
    18     9    34    1
    19    11    12    1
    20    11    27    1
    21    11    13    1
    22    13    14    1
    23    13    35    1
    24    13    36    1
    25    14    15    1
    26    14    37    1
    27    14    38    1
    28    15    16    1
    29    15    39    1
    30    15    40    1
    31    16    17   am
    32    16    26    1
    33    17    18    2
    34    17    19    1
    35    19    20    1
    36    19    25    1
    37    19    21    1
    38    21    22    1
    39    21    41    1
    40    21    42    1
    41    22    23    1
    42    22    43    1
    43    22    44    1
    44    23    24    2
    45    23    25   am
    46    25    45    1
    47    26    27    1
    48    26    46    1
    49    26    47    1
    50    27    48    1
    51    27    49    1
@<TRIPOS>SUBSTRUCTURE
     1 ZINC001016082614        1 TEMP              0 ****  ****    0 ROOT


##########                                Name:    ZINC001271977984
##########                DOCK_Rotatable_Bonds:                   7
##########                         Heavy_Atoms:                  24
##########                    Molecular_Weight:             328.371
##########                DOCK_Rotatable_Bonds:                   7
##########                       Formal_Charge:           0.0200001
##########                     HBond_Acceptors:                   7
##########                        HBond_Donors:                   0
##########                         Heavy_Atoms:                  24
##########                          Grid_Score:          -33.707111
##########                     Grid_vdw_energy:          -33.351543
##########                      Grid_es_energy:           -0.355566
##########           Internal_energy_repulsive:           49.386040

@<TRIPOS>MOLECULE
ZINC001271977984
 44 46 1 0 0
SMALL
USER_CHARGES


@<TRIPOS>ATOM
      1 C1         -8.9439   -3.4014   59.8655 C.3     1  ZINC001271977984   -0.1800
      2 C2        -10.2571   -2.6165   59.8869 C.3     1  ZINC001271977984    0.1700
      3 H3        -11.0859   -3.3001   60.0710 H       1  ZINC001271977984    0.1100
      4 C4        -10.2064   -1.5822   60.9816 C.2     1  ZINC001271977984    0.2700
      5 N5        -11.2285   -0.9055   61.4115 N.2     1  ZINC001271977984   -0.4700
      6 C6        -10.8150   -0.0673   62.4004 C.ar    1  ZINC001271977984    0.0200
      7 C7        -11.4626    0.8710   63.2051 C.ar    1  ZINC001271977984   -0.0600
      8 C8        -10.7435    1.5801   64.1414 C.ar    1  ZINC001271977984   -0.1200
      9 C9         -9.3811    1.3672   64.2890 C.ar    1  ZINC001271977984   -0.0900
     10 C10        -8.7278    0.4432   63.5001 C.ar    1  ZINC001271977984   -0.0900
     11 C11        -9.4361   -0.2798   62.5529 C.ar    1  ZINC001271977984    0.0100
     12 O12        -9.0996   -1.2326   61.6559 O.3     1  ZINC001271977984   -0.2100
     13 N13       -10.4504   -1.9501   58.5921 N.3     1  ZINC001271977984   -0.5300
     14 C14        -9.3597   -1.0050   58.3184 C.3     1  ZINC001271977984    0.0000
     15 C15       -10.5796   -2.9331   57.5082 C.3     1  ZINC001271977984    0.0400
     16 C16       -11.3717   -2.3174   56.3530 C.3     1  ZINC001271977984    0.1200
     17 N17       -11.6768   -3.3535   55.3631 N.am    1  ZINC001271977984   -0.6000
     18 C18       -10.9119   -3.4224   54.1155 C.3     1  ZINC001271977984    0.0800
     19 C19       -12.6611   -4.2430   55.6002 C.2     1  ZINC001271977984    0.6000
     20 O20       -12.9144   -5.1030   54.7785 O.2     1  ZINC001271977984   -0.5300
     21 C21       -13.4308   -4.1735   56.8556 C.2     1  ZINC001271977984   -0.0800
     22 C22       -14.3917   -5.0462   57.2642 C.2     1  ZINC001271977984    0.0200
     23 O23       -14.8314   -4.6141   58.4569 O.3     1  ZINC001271977984   -0.2000
     24 C24       -14.1559   -3.5006   58.7744 C.2     1  ZINC001271977984    0.1800
     25 N25       -13.3100   -3.2278   57.8265 N.2     1  ZINC001271977984   -0.4600
     26 H26        -8.9806   -4.1495   59.0737 H       1  ZINC001271977984    0.0800
     27 H27        -8.1151   -2.7178   59.6814 H       1  ZINC001271977984    0.0800
     28 H28        -8.8004   -3.8959   60.8262 H       1  ZINC001271977984    0.0700
     29 H29       -12.5234    1.0407   63.0938 H       1  ZINC001271977984    0.1400
     30 H30       -11.2436    2.3068   64.7645 H       1  ZINC001271977984    0.1400
     31 H31        -8.8275    1.9293   65.0266 H       1  ZINC001271977984    0.1400
     32 H32        -7.6666    0.2828   63.6207 H       1  ZINC001271977984    0.1400
     33 H33        -8.4109   -1.5413   58.2973 H       1  ZINC001271977984    0.0300
     34 H34        -9.5277   -0.5257   57.3540 H       1  ZINC001271977984    0.0700
     35 H35        -9.3310   -0.2467   59.1010 H       1  ZINC001271977984    0.1100
     36 H36        -9.5881   -3.2192   57.1570 H       1  ZINC001271977984    0.0500
     37 H37       -11.1026   -3.8151   57.8779 H       1  ZINC001271977984    0.0800
     38 H38       -12.3010   -1.8943   56.7345 H       1  ZINC001271977984    0.0900
     39 H39       -10.7796   -1.5309   55.8850 H       1  ZINC001271977984    0.0900
     40 H40       -10.0990   -4.1400   54.2269 H       1  ZINC001271977984    0.0600
     41 H41       -11.5676   -3.7392   53.3045 H       1  ZINC001271977984    0.0900
     42 H42       -10.5001   -2.4394   53.8870 H       1  ZINC001271977984    0.0700
     43 H43       -14.7354   -5.9199   56.7306 H       1  ZINC001271977984    0.2300
     44 H44       -14.2909   -2.9233   59.6771 H       1  ZINC001271977984    0.2600
@<TRIPOS>BOND
     1     1     2    1
     2     1    26    1
     3     1    27    1
     4     1    28    1
     5     2     3    1
     6     2     4    1
     7     2    13    1
     8     4    12    1
     9     4     5    2
    10     5     6    1
    11     6    11   ar
    12     6     7   ar
    13     7     8   ar
    14     7    29    1
    15     8     9   ar
    16     8    30    1
    17     9    10   ar
    18     9    31    1
    19    10    11   ar
    20    10    32    1
    21    11    12    1
    22    13    14    1
    23    13    15    1
    24    14    33    1
    25    14    34    1
    26    14    35    1
    27    15    16    1
    28    15    36    1
    29    15    37    1
    30    16    17    1
    31    16    38    1
    32    16    39    1
    33    17    18    1
    34    17    19   am
    35    18    40    1
    36    18    41    1
    37    18    42    1
    38    19    20    2
    39    19    21    1
    40    21    25    1
    41    21    22    2
    42    22    23    1
    43    22    43    1
    44    23    24    1
    45    24    25    2
    46    24    44    1
@<TRIPOS>SUBSTRUCTURE
     1 ZINC001271977984        1 TEMP              0 ****  ****    0 ROOT


##########                                Name:    ZINC000190927708
##########                DOCK_Rotatable_Bonds:                  10
##########                         Heavy_Atoms:                  26
##########                    Molecular_Weight:             358.437
##########                DOCK_Rotatable_Bonds:                  10
##########                       Formal_Charge:           0.0499998
##########                     HBond_Acceptors:                   6
##########                        HBond_Donors:                   1
##########                         Heavy_Atoms:                  26
##########                          Grid_Score:          -33.645168
##########                     Grid_vdw_energy:          -30.956348
##########                      Grid_es_energy:           -2.688819
##########           Internal_energy_repulsive:           27.713465

@<TRIPOS>MOLECULE
ZINC000190927708
 52 53 1 0 0
SMALL
USER_CHARGES


@<TRIPOS>ATOM
      1 C1        -14.3118   -5.0673   57.3289 C.3     1  ZINC000190927708   -0.1500
      2 C2        -14.0155   -3.7729   56.5687 C.3     1  ZINC000190927708   -0.1500
      3 C3        -12.6030   -3.8368   55.9840 C.3     1  ZINC000190927708    0.1000
      4 N4        -11.9613   -2.5263   56.1134 N.am    1  ZINC000190927708   -0.5900
      5 C5        -11.4267   -2.1512   57.2925 C.2     1  ZINC000190927708    0.5300
      6 O6        -10.8940   -1.0669   57.3992 O.2     1  ZINC000190927708   -0.5300
      7 C7        -11.4907   -3.0792   58.4780 C.3     1  ZINC000190927708   -0.0800
      8 C8        -10.7887   -2.4450   59.6510 C.2     1  ZINC000190927708   -0.1700
      9 C9        -11.4766   -1.6333   60.4916 C.2     1  ZINC000190927708    0.0000
     10 C10       -10.7655   -1.0330   61.6220 C.ar    1  ZINC000190927708   -0.1300
     11 C11       -11.4214   -0.1886   62.5232 C.ar    1  ZINC000190927708   -0.0500
     12 C12       -10.7294    0.3549   63.5685 C.ar    1  ZINC000190927708   -0.1500
     13 C13        -9.3811    0.0765   63.7439 C.ar    1  ZINC000190927708   -0.0600
     14 C14        -8.7141   -0.7526   62.8677 C.ar    1  ZINC000190927708   -0.1600
     15 C15        -9.3978   -1.3178   61.7966 C.ar    1  ZINC000190927708    0.1900
     16 N16        -8.7559   -2.1511   60.9052 N.am    1  ZINC000190927708   -0.6300
     17 C17        -9.4190   -2.7026   59.8738 C.2     1  ZINC000190927708    0.5500
     18 O18        -8.8195   -3.4345   59.1053 O.2     1  ZINC000190927708   -0.5300
     19 C19       -11.9005   -1.6234   54.9613 C.3     1  ZINC000190927708    0.1500
     20 H20       -11.4396   -0.6822   55.2612 H       1  ZINC000190927708    0.1400
     21 C21       -13.3166   -1.3567   54.4472 C.3     1  ZINC000190927708   -0.1300
     22 C22       -14.0329   -0.3972   55.3996 C.3     1  ZINC000190927708   -0.1500
     23 C23       -11.0804   -2.2584   53.8681 C.2     1  ZINC000190927708    0.4500
     24 O24       -10.5439   -3.3244   54.0570 O.2     1  ZINC000190927708   -0.5000
     25 O25       -10.9459   -1.6398   52.6845 O.3     1  ZINC000190927708   -0.3500
     26 C26       -10.6237   -0.2243   52.7133 C.3     1  ZINC000190927708    0.0600
     27 C27        -9.2538   -0.0261   53.3650 C.3     1  ZINC000190927708   -0.1500
     28 H28       -13.5894   -5.1880   58.1362 H       1  ZINC000190927708    0.0600
     29 H29       -15.3180   -5.0218   57.7453 H       1  ZINC000190927708    0.0600
     30 H30       -14.2390   -5.9142   56.6465 H       1  ZINC000190927708    0.0600
     31 H31       -14.7377   -3.6523   55.7613 H       1  ZINC000190927708    0.0800
     32 H32       -14.0883   -2.9261   57.2510 H       1  ZINC000190927708    0.0700
     33 H33       -12.0195   -4.5822   56.5244 H       1  ZINC000190927708    0.0900
     34 H34       -12.6579   -4.1120   54.9307 H       1  ZINC000190927708    0.0900
     35 H35       -12.5329   -3.2671   58.7366 H       1  ZINC000190927708    0.1100
     36 H36       -11.0028   -4.0215   58.2287 H       1  ZINC000190927708    0.1200
     37 H37       -12.5257   -1.4338   60.3308 H       1  ZINC000190927708    0.1400
     38 H38       -12.4704    0.0332   62.3935 H       1  ZINC000190927708    0.1400
     39 H39       -11.2361    1.0074   64.2643 H       1  ZINC000190927708    0.1300
     40 H40        -8.8487    0.5144   64.5754 H       1  ZINC000190927708    0.1300
     41 H41        -7.6648   -0.9631   63.0128 H       1  ZINC000190927708    0.1300
     42 H42        -7.8134   -2.3455   61.0264 H       1  ZINC000190927708    0.4200
     43 H43       -13.2645   -0.9112   53.4537 H       1  ZINC000190927708    0.0900
     44 H44       -13.8673   -2.2960   54.3956 H       1  ZINC000190927708    0.0800
     45 H45       -15.0417   -0.2073   55.0333 H       1  ZINC000190927708    0.0600
     46 H46       -14.0849   -0.8428   56.3930 H       1  ZINC000190927708    0.0600
     47 H47       -13.4821    0.5420   55.4511 H       1  ZINC000190927708    0.0600
     48 H48       -10.6012    0.1639   51.6950 H       1  ZINC000190927708    0.0700
     49 H49       -11.3805    0.3089   53.2887 H       1  ZINC000190927708    0.0700
     50 H50        -9.2763   -0.4142   54.3834 H       1  ZINC000190927708    0.0700
     51 H51        -8.4970   -0.5593   52.7896 H       1  ZINC000190927708    0.0700
     52 H52        -9.0121    1.0366   53.3866 H       1  ZINC000190927708    0.0800
@<TRIPOS>BOND
     1     1     2    1
     2     1    28    1
     3     1    29    1
     4     1    30    1
     5     2     3    1
     6     2    31    1
     7     2    32    1
     8     3     4    1
     9     3    33    1
    10     3    34    1
    11     4     5   am
    12     4    19    1
    13     5     6    2
    14     5     7    1
    15     7     8    1
    16     7    35    1
    17     7    36    1
    18     8    17    1
    19     8     9    2
    20     9    10    1
    21     9    37    1
    22    10    15   ar
    23    10    11   ar
    24    11    12   ar
    25    11    38    1
    26    12    13   ar
    27    12    39    1
    28    13    14   ar
    29    13    40    1
    30    14    15   ar
    31    14    41    1
    32    15    16    1
    33    16    17   am
    34    16    42    1
    35    17    18    2
    36    19    20    1
    37    19    21    1
    38    19    23    1
    39    21    22    1
    40    21    43    1
    41    21    44    1
    42    22    45    1
    43    22    46    1
    44    22    47    1
    45    23    24    2
    46    23    25    1
    47    25    26    1
    48    26    27    1
    49    26    48    1
    50    26    49    1
    51    27    50    1
    52    27    51    1
    53    27    52    1
@<TRIPOS>SUBSTRUCTURE
     1 ZINC000190927708        1 TEMP              0 ****  ****    0 ROOT


##########                                Name:    ZINC000191003171
##########                DOCK_Rotatable_Bonds:                   6
##########                         Heavy_Atoms:                  26
##########                    Molecular_Weight:             389.414
##########                DOCK_Rotatable_Bonds:                   6
##########                       Formal_Charge:          -0.0200002
##########                     HBond_Acceptors:                   8
##########                        HBond_Donors:                   1
##########                         Heavy_Atoms:                  26
##########                          Grid_Score:          -33.638206
##########                     Grid_vdw_energy:          -32.168537
##########                      Grid_es_energy:           -1.469670
##########           Internal_energy_repulsive:           17.605312

@<TRIPOS>MOLECULE
ZINC000191003171
 45 46 1 0 0
SMALL
USER_CHARGES


@<TRIPOS>ATOM
      1 C1        -13.9225   -2.7756   59.2949 C.3     1  ZINC000191003171   -0.1200
      2 C2        -13.0867   -3.1102   58.0863 C.ar    1  ZINC000191003171   -0.0800
      3 C3        -13.6941   -3.5593   56.9289 C.ar    1  ZINC000191003171   -0.0700
      4 C4        -12.9274   -3.8663   55.8201 C.ar    1  ZINC000191003171   -0.1800
      5 C5        -13.5896   -4.3564   54.5583 C.3     1  ZINC000191003171    0.5100
      6 F6        -13.9385   -3.2623   53.7593 F       1  ZINC000191003171   -0.1800
      7 F7        -12.7042   -5.1822   53.8575 F       1  ZINC000191003171   -0.1800
      8 F8        -14.7412   -5.0799   54.8868 F       1  ZINC000191003171   -0.1800
      9 C9        -11.5535   -3.7232   55.8688 C.ar    1  ZINC000191003171   -0.0800
     10 C10       -10.9460   -3.2735   57.0264 C.ar    1  ZINC000191003171   -0.1000
     11 C11       -11.7128   -2.9625   58.1335 C.ar    1  ZINC000191003171   -0.0500
     12 C12       -11.0506   -2.4723   59.3953 C.3     1  ZINC000191003171    0.0900
     13 N13        -9.8755   -1.6620   59.0485 N.3     1  ZINC000191003171   -0.6800
     14 C14       -10.0609   -0.2634   59.4581 C.3     1  ZINC000191003171    0.1200
     15 H15       -11.1017    0.0239   59.3092 H       1  ZINC000191003171    0.0600
     16 C16        -9.1572    0.6389   58.6153 C.3     1  ZINC000191003171   -0.1400
     17 C17        -9.7021   -0.1146   60.9141 C.ar    1  ZINC000191003171   -0.0100
     18 C18        -8.9293   -1.0765   61.5371 C.ar    1  ZINC000191003171   -0.1300
     19 C19        -8.5993   -0.9412   62.8729 C.ar    1  ZINC000191003171    0.0100
     20 C20        -9.0419    0.1559   63.5868 C.ar    1  ZINC000191003171   -0.7000
     21 S21        -8.6211    0.3279   65.2892 S.o2    1  ZINC000191003171    2.5000
     22 C22        -7.2392    1.5029   65.2974 C.3     1  ZINC000191003171   -0.6500
     23 O23        -9.7753    0.9113   65.8782 O.2     1  ZINC000191003171   -0.9300
     24 O24        -8.1776   -0.9663   65.6731 O.2     1  ZINC000191003171   -0.9300
     25 C25        -9.8157    1.1205   62.9637 C.ar    1  ZINC000191003171    0.1900
     26 F26       -10.2490    2.1938   63.6606 F       1  ZINC000191003171   -0.1200
     27 C27       -10.1411    0.9867   61.6247 C.ar    1  ZINC000191003171   -0.1700
     28 H28       -14.2166   -1.7268   59.2542 H       1  ZINC000191003171    0.0800
     29 H29       -14.8139   -3.4028   59.3052 H       1  ZINC000191003171    0.0800
     30 H30       -13.3414   -2.9552   60.1994 H       1  ZINC000191003171    0.0600
     31 H31       -14.7677   -3.6708   56.8908 H       1  ZINC000191003171    0.1400
     32 H32       -10.9546   -3.9630   55.0027 H       1  ZINC000191003171    0.1400
     33 H33        -9.8724   -3.1619   57.0645 H       1  ZINC000191003171    0.1400
     34 H34       -11.7555   -1.8656   59.9635 H       1  ZINC000191003171    0.0900
     35 H35       -10.7386   -3.3260   59.9970 H       1  ZINC000191003171    0.0500
     36 H36        -9.0366   -2.0493   59.4541 H       1  ZINC000191003171    0.3500
     37 H37        -9.2948    1.6766   58.9191 H       1  ZINC000191003171    0.0600
     38 H38        -8.1163    0.3516   58.7643 H       1  ZINC000191003171    0.0700
     39 H39        -9.4168    0.5312   57.5621 H       1  ZINC000191003171    0.0600
     40 H40        -8.5833   -1.9346   60.9800 H       1  ZINC000191003171    0.1500
     41 H41        -7.9958   -1.6937   63.3588 H       1  ZINC000191003171    0.1600
     42 H42        -7.5630    2.4478   64.8608 H       1  ZINC000191003171    0.1300
     43 H43        -6.9108    1.6705   66.3232 H       1  ZINC000191003171    0.1400
     44 H44        -6.4135    1.0968   64.7132 H       1  ZINC000191003171    0.1300
     45 H45       -10.7442    1.7386   61.1376 H       1  ZINC000191003171    0.1500
@<TRIPOS>BOND
     1     1     2    1
     2     1    28    1
     3     1    29    1
     4     1    30    1
     5     2    11   ar
     6     2     3   ar
     7     3     4   ar
     8     3    31    1
     9     4     5    1
    10     4     9   ar
    11     5     6    1
    12     5     7    1
    13     5     8    1
    14     9    10   ar
    15     9    32    1
    16    10    11   ar
    17    10    33    1
    18    11    12    1
    19    12    13    1
    20    12    34    1
    21    12    35    1
    22    13    14    1
    23    13    36    1
    24    14    15    1
    25    14    16    1
    26    14    17    1
    27    16    37    1
    28    16    38    1
    29    16    39    1
    30    17    27   ar
    31    17    18   ar
    32    18    19   ar
    33    18    40    1
    34    19    20   ar
    35    19    41    1
    36    20    21    1
    37    20    25   ar
    38    21    22    1
    39    21    23    2
    40    21    24    2
    41    22    42    1
    42    22    43    1
    43    22    44    1
    44    25    26    1
    45    25    27   ar
    46    27    45    1
@<TRIPOS>SUBSTRUCTURE
     1 ZINC000191003171        1 TEMP              0 ****  ****    0 ROOT


##########                                Name:    ZINC000549381790
##########                DOCK_Rotatable_Bonds:                   7
##########                         Heavy_Atoms:                  23
##########                    Molecular_Weight:             337.846
##########                DOCK_Rotatable_Bonds:                   7
##########                       Formal_Charge:           0.0300006
##########                     HBond_Acceptors:                   5
##########                        HBond_Donors:                   0
##########                         Heavy_Atoms:                  23
##########                          Grid_Score:          -33.631065
##########                     Grid_vdw_energy:          -32.548882
##########                      Grid_es_energy:           -1.082184
##########           Internal_energy_repulsive:           87.038826

@<TRIPOS>MOLECULE
ZINC000549381790
 47 49 1 0 0
SMALL
USER_CHARGES


@<TRIPOS>ATOM
      1 C1        -14.4942   -4.3605   55.1613 C.3     1  ZINC000549381790   -0.1400
      2 C2        -13.2613   -4.1504   54.2801 C.3     1  ZINC000549381790    0.1500
      3 H3        -13.1806   -4.9678   53.5636 H       1  ZINC000549381790    0.0700
      4 C4        -13.3867   -2.8206   53.5300 C.3     1  ZINC000549381790   -0.1300
      5 C5        -12.0923   -2.5498   52.7597 C.3     1  ZINC000549381790   -0.1200
      6 C6        -10.9246   -2.4414   53.7431 C.3     1  ZINC000549381790   -0.1400
      7 C7        -10.7713   -3.7669   54.4955 C.3     1  ZINC000549381790    0.1000
      8 N8        -12.0565   -4.1110   55.1200 N.am    1  ZINC000549381790   -0.6100
      9 C9        -12.1290   -4.3802   56.4386 C.2     1  ZINC000549381790    0.5200
     10 O10       -13.1956   -4.6627   56.9421 O.2     1  ZINC000549381790   -0.5000
     11 C11       -10.8847   -4.3299   57.2874 C.3     1  ZINC000549381790    0.0400
     12 O12       -10.4472   -2.9751   57.4115 O.3     1  ZINC000549381790   -0.2800
     13 C13       -10.3940   -2.4562   58.6673 C.ar    1  ZINC000549381790    0.1100
     14 C14        -9.3972   -2.8601   59.5427 C.ar    1  ZINC000549381790   -0.1700
     15 C15        -9.3423   -2.3328   60.8187 C.ar    1  ZINC000549381790   -0.1600
     16 C16       -10.2842   -1.4000   61.2246 C.ar    1  ZINC000549381790    0.1100
     17 O17       -10.2301   -0.8811   62.4807 O.3     1  ZINC000549381790   -0.3000
     18 C18        -9.0125   -0.2398   62.8657 C.3     1  ZINC000549381790    0.0900
     19 C19        -9.2876    0.7255   64.0205 C.3     1  ZINC000549381790   -0.1600
     20 C20        -8.9106    0.2660   65.4303 C.3     1  ZINC000549381790   -0.1700
     21 C21        -8.0797    1.3422   64.7288 C.3     1  ZINC000549381790   -0.1700
     22 C22       -11.2823   -0.9953   60.3487 C.ar    1  ZINC000549381790   -0.0300
     23 Cl23      -12.4616    0.1732   60.8563 Cl      1  ZINC000549381790   -0.0400
     24 C24       -11.3334   -1.5186   59.0707 C.ar    1  ZINC000549381790   -0.1000
     25 H25       -14.5180   -3.5987   55.9405 H       1  ZINC000549381790    0.0600
     26 H26       -15.3941   -4.2843   54.5511 H       1  ZINC000549381790    0.0500
     27 H27       -14.4489   -5.3482   55.6200 H       1  ZINC000549381790    0.0800
     28 H28       -14.2215   -2.8744   52.8312 H       1  ZINC000549381790    0.0800
     29 H29       -13.5605   -2.0153   54.2437 H       1  ZINC000549381790    0.0700
     30 H30       -11.9061   -3.3678   52.0636 H       1  ZINC000549381790    0.0700
     31 H31       -12.1880   -1.6163   52.2053 H       1  ZINC000549381790    0.0700
     32 H32       -10.0070   -2.2255   53.1959 H       1  ZINC000549381790    0.0800
     33 H33       -11.1217   -1.6398   54.4548 H       1  ZINC000549381790    0.0700
     34 H34       -10.4850   -4.5529   53.7966 H       1  ZINC000549381790    0.0800
     35 H35       -10.0068   -3.6637   55.2656 H       1  ZINC000549381790    0.0800
     36 H36       -11.1030   -4.7332   58.2763 H       1  ZINC000549381790    0.0900
     37 H37       -10.1004   -4.9235   56.8180 H       1  ZINC000549381790    0.0900
     38 H38        -8.6636   -3.5873   59.2271 H       1  ZINC000549381790    0.1400
     39 H39        -8.5658   -2.6477   61.5001 H       1  ZINC000549381790    0.1400
     40 H40        -8.2908   -0.9917   63.1848 H       1  ZINC000549381790    0.0700
     41 H41        -8.6095    0.3138   62.0176 H       1  ZINC000549381790    0.0700
     42 H42       -10.1785    1.3443   63.9138 H       1  ZINC000549381790    0.1200
     43 H43        -9.5537    0.5824   66.2515 H       1  ZINC000549381790    0.1000
     44 H44        -8.4667   -0.7240   65.5351 H       1  ZINC000549381790    0.1000
     45 H45        -7.0890    1.0602   64.3720 H       1  ZINC000549381790    0.1000
     46 H46        -8.1761    2.3666   65.0884 H       1  ZINC000549381790    0.1000
     47 H47       -12.1097   -1.2041   58.3889 H       1  ZINC000549381790    0.1500
@<TRIPOS>BOND
     1     1     2    1
     2     1    25    1
     3     1    26    1
     4     1    27    1
     5     2     3    1
     6     2     8    1
     7     2     4    1
     8     4     5    1
     9     4    28    1
    10     4    29    1
    11     5     6    1
    12     5    30    1
    13     5    31    1
    14     6     7    1
    15     6    32    1
    16     6    33    1
    17     7     8    1
    18     7    34    1
    19     7    35    1
    20     8     9   am
    21     9    10    2
    22     9    11    1
    23    11    12    1
    24    11    36    1
    25    11    37    1
    26    12    13    1
    27    13    24   ar
    28    13    14   ar
    29    14    15   ar
    30    14    38    1
    31    15    16   ar
    32    15    39    1
    33    16    17    1
    34    16    22   ar
    35    17    18    1
    36    18    19    1
    37    18    40    1
    38    18    41    1
    39    19    21    1
    40    19    20    1
    41    19    42    1
    42    20    21    1
    43    20    43    1
    44    20    44    1
    45    21    45    1
    46    21    46    1
    47    22    23    1
    48    22    24   ar
    49    24    47    1
@<TRIPOS>SUBSTRUCTURE
     1 ZINC000549381790        1 TEMP              0 ****  ****    0 ROOT


##########                                Name:    ZINC000655235556
##########                DOCK_Rotatable_Bonds:                   6
##########                         Heavy_Atoms:                  23
##########                    Molecular_Weight:             336.778
##########                DOCK_Rotatable_Bonds:                   6
##########                       Formal_Charge:         -0.00999996
##########                     HBond_Acceptors:                   8
##########                        HBond_Donors:                   2
##########                         Heavy_Atoms:                  23
##########                          Grid_Score:          -33.621235
##########                     Grid_vdw_energy:          -30.340685
##########                      Grid_es_energy:           -3.280551
##########           Internal_energy_repulsive:            6.662904

@<TRIPOS>MOLECULE
ZINC000655235556
 40 42 1 0 0
SMALL
USER_CHARGES


@<TRIPOS>ATOM
      1 C1        -10.6897   -4.2737   57.7788 C.3     1  ZINC000655235556    0.0200
      2 O2        -11.6278   -3.2672   57.3925 O.3     1  ZINC000655235556   -0.2700
      3 C3        -12.2590   -3.4373   56.2039 C.ar    1  ZINC000655235556    0.2000
      4 C4        -11.5618   -3.2784   55.0165 C.ar    1  ZINC000655235556   -0.2100
      5 C5        -12.2064   -3.4526   53.8060 C.ar    1  ZINC000655235556    0.0300
      6 Cl6       -11.3269   -3.2520   52.3228 Cl      1  ZINC000655235556   -0.0500
      7 C7        -13.5516   -3.7872   53.7700 C.ar    1  ZINC000655235556   -0.1600
      8 C8        -14.2589   -3.9488   54.9413 C.ar    1  ZINC000655235556   -0.0300
      9 C9        -13.6181   -3.7804   56.1712 C.ar    1  ZINC000655235556   -0.1700
     10 C10       -14.3697   -3.9525   57.4284 C.2     1  ZINC000655235556    0.5700
     11 O11       -14.2977   -5.0003   58.0413 O.2     1  ZINC000655235556   -0.5100
     12 N12       -15.1365   -2.9485   57.8979 N.am    1  ZINC000655235556   -0.7300
     13 C13       -15.8818   -3.1187   59.1477 C.3     1  ZINC000655235556    0.2100
     14 C14       -15.1488   -2.4269   60.2679 C.2     1  ZINC000655235556    0.2600
     15 N15       -15.2360   -1.1581   60.5748 N.2     1  ZINC000655235556   -0.5100
     16 C16       -14.4522   -0.8907   61.6186 C.2     1  ZINC000655235556    0.2200
     17 C17       -14.2848    0.4606   62.2646 C.3     1  ZINC000655235556    0.1700
     18 H18       -14.4116    1.2451   61.5186 H       1  ZINC000655235556    0.1100
     19 C19       -12.8828    0.5661   62.9024 C.3     1  ZINC000655235556   -0.1400
     20 C20       -13.1774    1.3321   64.2209 C.3     1  ZINC000655235556   -0.1500
     21 C21       -14.5825    0.7822   64.5730 C.3     1  ZINC000655235556    0.0500
     22 O22       -15.2510    0.6227   63.3094 O.3     1  ZINC000655235556   -0.3700
     23 N23       -13.8526   -1.9906   61.9919 N.2     1  ZINC000655235556   -0.2800
     24 N24       -14.2955   -3.0069   61.1297 N.pl3   1  ZINC000655235556   -0.4700
     25 H25       -11.1980   -5.2352   57.8520 H       1  ZINC000655235556    0.0600
     26 H26        -9.8974   -4.3374   57.0329 H       1  ZINC000655235556    0.0600
     27 H27       -10.2582   -4.0162   58.7461 H       1  ZINC000655235556    0.1100
     28 H28       -10.5139   -3.0179   55.0371 H       1  ZINC000655235556    0.1500
     29 H29       -14.0470   -3.9213   52.8199 H       1  ZINC000655235556    0.1400
     30 H30       -15.3065   -4.2091   54.9085 H       1  ZINC000655235556    0.1400
     31 H31       -15.1949   -2.1131   57.4083 H       1  ZINC000655235556    0.4000
     32 H32       -16.8754   -2.6836   59.0403 H       1  ZINC000655235556    0.1000
     33 H33       -15.9730   -4.1809   59.3745 H       1  ZINC000655235556    0.1100
     34 H34       -12.4762   -0.4235   63.1112 H       1  ZINC000655235556    0.0800
     35 H35       -12.2084    1.1371   62.2644 H       1  ZINC000655235556    0.0900
     36 H36       -12.4513    1.0783   64.9932 H       1  ZINC000655235556    0.0900
     37 H37       -13.2078    2.4084   64.0515 H       1  ZINC000655235556    0.0800
     38 H38       -14.4965   -0.1788   65.0801 H       1  ZINC000655235556    0.0600
     39 H39       -15.1216    1.4939   65.1981 H       1  ZINC000655235556    0.0900
     40 H40       -14.0329   -3.9404   61.1483 H       1  ZINC000655235556    0.4400
@<TRIPOS>BOND
     1     1     2    1
     2     1    25    1
     3     1    26    1
     4     1    27    1
     5     2     3    1
     6     3     9   ar
     7     3     4   ar
     8     4     5   ar
     9     4    28    1
    10     5     6    1
    11     5     7   ar
    12     7     8   ar
    13     7    29    1
    14     8     9   ar
    15     8    30    1
    16     9    10    1
    17    10    11    2
    18    10    12   am
    19    12    13    1
    20    12    31    1
    21    13    14    1
    22    13    32    1
    23    13    33    1
    24    14    24    1
    25    14    15    2
    26    15    16    1
    27    16    17    1
    28    16    23    2
    29    17    18    1
    30    17    22    1
    31    17    19    1
    32    19    20    1
    33    19    34    1
    34    19    35    1
    35    20    21    1
    36    20    36    1
    37    20    37    1
    38    21    22    1
    39    21    38    1
    40    21    39    1
    41    23    24    1
    42    24    40    1
@<TRIPOS>SUBSTRUCTURE
     1 ZINC000655235556        1 TEMP              0 ****  ****    0 ROOT


##########                                Name:    ZINC000753658424
##########                DOCK_Rotatable_Bonds:                   8
##########                         Heavy_Atoms:                  24
##########                    Molecular_Weight:             332.399
##########                DOCK_Rotatable_Bonds:                   8
##########                       Formal_Charge:        -9.16421e-07
##########                     HBond_Acceptors:                   6
##########                        HBond_Donors:                   3
##########                         Heavy_Atoms:                  24
##########                          Grid_Score:          -33.607380
##########                     Grid_vdw_energy:          -31.864420
##########                      Grid_es_energy:           -1.742960
##########           Internal_energy_repulsive:           19.290979

@<TRIPOS>MOLECULE
ZINC000753658424
 48 49 1 0 0
SMALL
USER_CHARGES


@<TRIPOS>ATOM
      1 C1        -11.8046    2.6068   63.6044 C.3     1  ZINC000753658424   -0.2000
      2 C2        -11.8035    1.1008   63.5481 C.2     1  ZINC000753658424    0.4400
      3 O3        -12.6712    0.4719   64.1169 O.2     1  ZINC000753658424   -0.4500
      4 C4        -10.7539    0.3956   62.8060 C.2     1  ZINC000753658424   -0.2500
      5 C5         -9.4514    0.1766   63.2268 C.2     1  ZINC000753658424    0.1000
      6 C6         -8.8608    0.6256   64.5386 C.3     1  ZINC000753658424   -0.1000
      7 N7         -8.8066   -0.5035   62.2675 N.pl3   1  ZINC000753658424   -0.5300
      8 C8         -9.6679   -0.7369   61.2170 C.2     1  ZINC000753658424   -0.0600
      9 C9         -9.3373   -1.4517   59.9776 C.2     1  ZINC000753658424    0.5900
     10 O10        -8.8231   -0.8554   59.0500 O.2     1  ZINC000753658424   -0.5200
     11 N11        -9.6034   -2.7684   59.8676 N.am    1  ZINC000753658424   -0.7300
     12 C12        -9.2751   -3.4811   58.6305 C.3     1  ZINC000753658424    0.0900
     13 C13       -10.5536   -4.0587   58.0200 C.3     1  ZINC000753658424    0.1900
     14 H14       -11.3849   -3.9092   58.7088 H       1  ZINC000753658424    0.1300
     15 O15       -10.3780   -5.4568   57.7817 O.3     1  ZINC000753658424   -0.5500
     16 C16       -10.8484   -3.3603   56.7176 C.2     1  ZINC000753658424   -0.0600
     17 C17       -10.8546   -2.0294   56.5226 C.2     1  ZINC000753658424   -0.1800
     18 C18       -11.1783   -1.8162   55.1629 C.2     1  ZINC000753658424   -0.2100
     19 C19       -11.3506   -3.0296   54.6084 C.2     1  ZINC000753658424    0.0000
     20 C20       -11.7078   -3.2983   53.1692 C.3     1  ZINC000753658424   -0.0800
     21 O21       -11.1438   -3.9613   55.5534 O.3     1  ZINC000753658424   -0.1700
     22 C22       -10.8798   -0.1966   61.5263 C.2     1  ZINC000753658424   -0.0100
     23 C23       -12.1167   -0.2172   60.6658 C.3     1  ZINC000753658424   -0.0500
     24 C24       -13.2013   -1.0505   61.3516 C.3     1  ZINC000753658424   -0.1500
     25 C25       -12.6225    1.2127   60.4654 C.3     1  ZINC000753658424   -0.1500
     26 H26       -12.6965    2.9502   64.1285 H       1  ZINC000753658424    0.0800
     27 H27       -10.9166    2.9511   64.1343 H       1  ZINC000753658424    0.1000
     28 H28       -11.8015    3.0082   62.5910 H       1  ZINC000753658424    0.0900
     29 H29        -8.9297   -0.1846   65.2643 H       1  ZINC000753658424    0.0900
     30 H30        -7.8147    0.8950   64.3927 H       1  ZINC000753658424    0.0800
     31 H31        -9.4109    1.4914   64.9072 H       1  ZINC000753658424    0.0900
     32 H32        -7.8797   -0.7868   62.3068 H       1  ZINC000753658424    0.4200
     33 H33       -10.0123   -3.2440   60.6075 H       1  ZINC000753658424    0.4000
     34 H34        -8.8153   -2.7899   57.9241 H       1  ZINC000753658424    0.0900
     35 H35        -8.5798   -4.2909   58.8512 H       1  ZINC000753658424    0.0800
     36 H36        -9.7548   -5.8836   58.3854 H       1  ZINC000753658424    0.3900
     37 H37       -10.6518   -1.2695   57.2627 H       1  ZINC000753658424    0.1500
     38 H38       -11.2700   -0.8622   54.6651 H       1  ZINC000753658424    0.1500
     39 H39       -10.7956   -3.3942   52.5803 H       1  ZINC000753658424    0.0800
     40 H40       -12.2815   -4.2227   53.1037 H       1  ZINC000753658424    0.0800
     41 H41       -12.3046   -2.4721   52.7827 H       1  ZINC000753658424    0.0900
     42 H42       -11.8783   -0.6574   59.6975 H       1  ZINC000753658424    0.1100
     43 H43       -13.5251   -0.5466   62.2622 H       1  ZINC000753658424    0.0500
     44 H44       -14.0508   -1.1659   60.6784 H       1  ZINC000753658424    0.0600
     45 H45       -12.8006   -2.0327   61.6026 H       1  ZINC000753658424    0.0600
     46 H46       -11.8821    1.7850   59.9064 H       1  ZINC000753658424    0.0500
     47 H47       -13.5603    1.1919   59.9103 H       1  ZINC000753658424    0.0600
     48 H48       -12.7854    1.6799   61.4365 H       1  ZINC000753658424    0.0600
@<TRIPOS>BOND
     1     1     2    1
     2     1    26    1
     3     1    27    1
     4     1    28    1
     5     2     3    2
     6     2     4    1
     7     4    22    1
     8     4     5    2
     9     5     6    1
    10     5     7    1
    11     6    29    1
    12     6    30    1
    13     6    31    1
    14     7     8    1
    15     7    32    1
    16     8     9    1
    17     8    22    2
    18     9    10    2
    19     9    11   am
    20    11    12    1
    21    11    33    1
    22    12    13    1
    23    12    34    1
    24    12    35    1
    25    13    14    1
    26    13    15    1
    27    13    16    1
    28    15    36    1
    29    16    21    1
    30    16    17    2
    31    17    18    1
    32    17    37    1
    33    18    19    2
    34    18    38    1
    35    19    20    1
    36    19    21    1
    37    20    39    1
    38    20    40    1
    39    20    41    1
    40    22    23    1
    41    23    24    1
    42    23    25    1
    43    23    42    1
    44    24    43    1
    45    24    44    1
    46    24    45    1
    47    25    46    1
    48    25    47    1
    49    25    48    1
@<TRIPOS>SUBSTRUCTURE
     1 ZINC000753658424        1 TEMP              0 ****  ****    0 ROOT


##########                                Name:    ZINC000547864253
##########                DOCK_Rotatable_Bonds:                   6
##########                         Heavy_Atoms:                  30
##########                    Molecular_Weight:             422.548
##########                DOCK_Rotatable_Bonds:                   6
##########                       Formal_Charge:           0.0300002
##########                     HBond_Acceptors:                   6
##########                        HBond_Donors:                   2
##########                         Heavy_Atoms:                  30
##########                          Grid_Score:          -33.606697
##########                     Grid_vdw_energy:          -30.402466
##########                      Grid_es_energy:           -3.204230
##########           Internal_energy_repulsive:           20.256292

@<TRIPOS>MOLECULE
ZINC000547864253
 56 60 1 0 0
SMALL
USER_CHARGES


@<TRIPOS>ATOM
      1 O1        -11.3166   -3.0656   51.6349 O.2     1  ZINC000547864253   -0.5300
      2 C2        -11.8633   -2.3996   52.4883 C.2     1  ZINC000547864253    0.5400
      3 N3        -12.8763   -1.5757   52.1540 N.am    1  ZINC000547864253   -0.7200
      4 C4        -13.3128   -1.4804   50.7588 C.3     1  ZINC000547864253    0.1300
      5 C5        -13.9320   -0.1033   50.5112 C.3     1  ZINC000547864253    0.0200
      6 H6        -13.1688    0.6653   50.6326 H       1  ZINC000547864253    0.0900
      7 C7        -14.4847   -0.0456   49.1104 C.2     1  ZINC000547864253   -0.1600
      8 C8        -14.1582    0.8436   48.1593 C.2     1  ZINC000547864253    0.0600
      9 N9        -14.8632    0.5835   47.0157 N.pl3   1  ZINC000547864253   -0.5900
     10 C10       -15.6814   -0.5072   47.2079 C.ar    1  ZINC000547864253    0.1000
     11 C11       -16.5864   -1.1806   46.3944 C.ar    1  ZINC000547864253   -0.1300
     12 C12       -17.2731   -2.2682   46.8887 C.ar    1  ZINC000547864253   -0.1000
     13 C13       -17.0711   -2.7001   48.1920 C.ar    1  ZINC000547864253   -0.1400
     14 C14       -16.1865   -2.0532   49.0086 C.ar    1  ZINC000547864253   -0.0700
     15 C15       -15.4755   -0.9530   48.5264 C.ar    1  ZINC000547864253   -0.1000
     16 C16       -15.0443    0.1325   51.5002 C.ar    1  ZINC000547864253   -0.0700
     17 C17       -15.4114    1.4231   51.8326 C.ar    1  ZINC000547864253   -0.1100
     18 C18       -16.4317    1.6395   52.7398 C.ar    1  ZINC000547864253   -0.1200
     19 C19       -17.0851    0.5653   53.3144 C.ar    1  ZINC000547864253   -0.1200
     20 C20       -16.7186   -0.7253   52.9812 C.ar    1  ZINC000547864253   -0.1100
     21 C21       -15.7013   -0.9416   52.0708 C.ar    1  ZINC000547864253   -0.1200
     22 C22       -11.4143   -2.4977   53.9235 C.3     1  ZINC000547864253   -0.1700
     23 H23       -10.8985   -1.6212   54.3156 H       1  ZINC000547864253    0.1400
     24 C24       -10.9623   -3.8686   54.4300 C.3     1  ZINC000547864253   -0.1300
     25 C25       -12.3022   -3.2865   54.8897 C.3     1  ZINC000547864253   -0.1400
     26 C26       -12.3931   -2.7827   56.3307 C.3     1  ZINC000547864253   -0.0700
     27 C27       -12.6285   -3.9627   57.2760 C.3     1  ZINC000547864253   -0.6000
     28 S28       -14.1923   -4.7751   56.8391 S.o2    1  ZINC000547864253    2.4200
     29 O29       -14.3001   -5.9817   57.5820 O.2     1  ZINC000547864253   -0.9400
     30 O30       -15.2386   -3.8166   56.9151 O.2     1  ZINC000547864253   -0.9300
     31 C31       -13.9108   -5.1915   55.0944 C.3     1  ZINC000547864253   -0.6000
     32 C32       -13.5748   -3.9150   54.3202 C.3     1  ZINC000547864253   -0.0700
     33 H33       -13.3163   -1.0460   52.8371 H       1  ZINC000547864253    0.4000
     34 H34       -12.4556   -1.6172   50.0997 H       1  ZINC000547864253    0.0800
     35 H35       -14.0539   -2.2536   50.5563 H       1  ZINC000547864253    0.0700
     36 H36       -13.4451    1.6458   48.2790 H       1  ZINC000547864253    0.1700
     37 H37       -14.7965    1.0918   46.1922 H       1  ZINC000547864253    0.4200
     38 H38       -16.7509   -0.8518   45.3788 H       1  ZINC000547864253    0.1200
     39 H39       -17.9758   -2.7894   46.2556 H       1  ZINC000547864253    0.1300
     40 H40       -17.6177   -3.5541   48.5641 H       1  ZINC000547864253    0.1200
     41 H41       -16.0346   -2.3950   50.0217 H       1  ZINC000547864253    0.1200
     42 H42       -14.9009    2.2624   51.3838 H       1  ZINC000547864253    0.1200
     43 H43       -16.7181    2.6478   53.0001 H       1  ZINC000547864253    0.1200
     44 H44       -17.8818    0.7344   54.0237 H       1  ZINC000547864253    0.1200
     45 H45       -17.2290   -1.5645   53.4303 H       1  ZINC000547864253    0.1200
     46 H46       -15.4149   -1.9499   51.8105 H       1  ZINC000547864253    0.1200
     47 H47       -10.9896   -4.6997   53.7252 H       1  ZINC000547864253    0.1100
     48 H48       -10.1493   -3.8940   55.1556 H       1  ZINC000547864253    0.1100
     49 H49       -11.4625   -2.2827   56.5995 H       1  ZINC000547864253    0.0900
     50 H50       -13.2204   -2.0782   56.4170 H       1  ZINC000547864253    0.0900
     51 H51       -11.8090   -4.6750   57.1803 H       1  ZINC000547864253    0.1400
     52 H52       -12.6803   -3.6018   58.3032 H       1  ZINC000547864253    0.1400
     53 H53       -13.0806   -5.8935   55.0170 H       1  ZINC000547864253    0.1400
     54 H54       -14.8110   -5.6436   54.6781 H       1  ZINC000547864253    0.1400
     55 H55       -14.3999   -3.2085   54.4104 H       1  ZINC000547864253    0.0900
     56 H56       -13.4200   -4.1586   53.2692 H       1  ZINC000547864253    0.0900
@<TRIPOS>BOND
     1     1     2    2
     2     2     3   am
     3     2    22    1
     4     3     4    1
     5     3    33    1
     6     4     5    1
     7     4    34    1
     8     4    35    1
     9     5     6    1
    10     5     7    1
    11     5    16    1
    12     7    15    1
    13     7     8    2
    14     8     9    1
    15     8    36    1
    16     9    10    1
    17     9    37    1
    18    10    15   ar
    19    10    11   ar
    20    11    12   ar
    21    11    38    1
    22    12    13   ar
    23    12    39    1
    24    13    14   ar
    25    13    40    1
    26    14    15   ar
    27    14    41    1
    28    16    21   ar
    29    16    17   ar
    30    17    18   ar
    31    17    42    1
    32    18    19   ar
    33    18    43    1
    34    19    20   ar
    35    19    44    1
    36    20    21   ar
    37    20    45    1
    38    21    46    1
    39    22    23    1
    40    22    25    1
    41    22    24    1
    42    24    25    1
    43    24    47    1
    44    24    48    1
    45    25    32    1
    46    25    26    1
    47    26    27    1
    48    26    49    1
    49    26    50    1
    50    27    28    1
    51    27    51    1
    52    27    52    1
    53    28    29    2
    54    28    30    2
    55    28    31    1
    56    31    32    1
    57    31    53    1
    58    31    54    1
    59    32    55    1
    60    32    56    1
@<TRIPOS>SUBSTRUCTURE
     1 ZINC000547864253        1 TEMP              0 ****  ****    0 ROOT


##########                                Name:    ZINC001342629575
##########                DOCK_Rotatable_Bonds:                   9
##########                         Heavy_Atoms:                  29
##########                    Molecular_Weight:             396.533
##########                DOCK_Rotatable_Bonds:                   9
##########                       Formal_Charge:         -0.00999976
##########                     HBond_Acceptors:                   6
##########                        HBond_Donors:                   0
##########                         Heavy_Atoms:                  29
##########                          Grid_Score:          -33.597317
##########                     Grid_vdw_energy:          -33.586628
##########                      Grid_es_energy:           -0.010689
##########           Internal_energy_repulsive:           18.837015

@<TRIPOS>MOLECULE
ZINC001342629575
 61 64 1 0 0
SMALL
USER_CHARGES


@<TRIPOS>ATOM
      1 C1         -8.6141   -0.7151   62.9513 C.2     1  ZINC001342629575   -0.1800
      2 C2         -9.1982   -0.3343   61.8423 C.2     1  ZINC001342629575   -0.1600
      3 C3         -9.5882   -1.3570   60.8065 C.3     1  ZINC001342629575   -0.0800
      4 C4        -10.7757   -0.8342   59.9956 C.3     1  ZINC001342629575    0.0500
      5 H5        -10.5124    0.1203   59.5398 H       1  ZINC001342629575    0.0900
      6 C6        -11.1233   -1.8271   58.9166 C.2     1  ZINC001342629575    0.2000
      7 N7        -10.6261   -3.0236   58.7789 N.2     1  ZINC001342629575   -0.2700
      8 N8        -11.1427   -3.6002   57.7529 N.2     1  ZINC001342629575   -0.3000
      9 C9        -12.0042   -2.7958   57.1762 C.2     1  ZINC001342629575    0.3400
     10 N10       -12.7570   -3.0691   56.0452 N.3     1  ZINC001342629575   -0.4300
     11 C11       -13.7802   -4.1092   56.3253 C.3     1  ZINC001342629575    0.0400
     12 C12       -14.1427   -4.6817   54.9382 C.3     1  ZINC001342629575   -0.1200
     13 C13       -12.9155   -4.3891   54.0505 C.3     1  ZINC001342629575   -0.1200
     14 C14       -11.9146   -3.6644   54.9760 C.3     1  ZINC001342629575    0.0700
     15 H15       -11.2067   -4.3757   55.4015 H       1  ZINC001342629575    0.0900
     16 C16       -11.1725   -2.5699   54.2065 C.3     1  ZINC001342629575    0.1000
     17 H17       -10.3283   -2.2115   54.7955 H       1  ZINC001342629575    0.0700
     18 C18       -12.1330   -1.4003   53.9023 C.3     1  ZINC001342629575   -0.1400
     19 C19       -11.7114   -0.9929   52.4643 C.3     1  ZINC001342629575   -0.1600
     20 C20       -11.3230   -2.3704   51.8702 C.3     1  ZINC001342629575    0.0500
     21 O21       -10.7067   -3.0868   52.9545 O.3     1  ZINC001342629575   -0.3700
     22 N22       -12.0233   -1.6417   57.9039 N.pl3   1  ZINC001342629575   -0.4600
     23 C23       -12.8327   -0.4478   57.6477 C.3     1  ZINC001342629575    0.1100
     24 C24       -14.2800   -0.7132   58.0670 C.3     1  ZINC001342629575    0.0500
     25 O25       -15.0499    0.4793   57.9023 O.3     1  ZINC001342629575   -0.3800
     26 C26       -16.4185    0.3457   58.2910 C.3     1  ZINC001342629575    0.0300
     27 C27       -11.9618   -0.6459   60.9059 C.ar    1  ZINC001342629575   -0.0900
     28 C28       -12.6763   -1.7443   61.3463 C.ar    1  ZINC001342629575   -0.0900
     29 C29       -13.7643   -1.5717   62.1814 C.ar    1  ZINC001342629575   -0.1200
     30 C30       -14.1375   -0.3006   62.5765 C.ar    1  ZINC001342629575   -0.1200
     31 C31       -13.4224    0.7977   62.1369 C.ar    1  ZINC001342629575   -0.1200
     32 C32       -12.3318    0.6247   61.3053 C.ar    1  ZINC001342629575   -0.1100
     33 H33        -8.3345    0.0178   63.6936 H       1  ZINC001342629575    0.1000
     34 H34        -8.4161   -1.7625   63.1253 H       1  ZINC001342629575    0.1000
     35 H35        -9.4001    0.7126   61.6703 H       1  ZINC001342629575    0.1000
     36 H36        -8.7452   -1.5389   60.1400 H       1  ZINC001342629575    0.0900
     37 H37        -9.8675   -2.2871   61.3014 H       1  ZINC001342629575    0.0800
     38 H38       -13.3642   -4.8900   56.9619 H       1  ZINC001342629575    0.0600
     39 H39       -14.6575   -3.6629   56.7935 H       1  ZINC001342629575    0.0800
     40 H40       -14.3140   -5.7560   55.0050 H       1  ZINC001342629575    0.0800
     41 H41       -15.0254   -4.1808   54.5407 H       1  ZINC001342629575    0.0800
     42 H42       -12.4844   -5.3198   53.6817 H       1  ZINC001342629575    0.0800
     43 H43       -13.1958   -3.7446   53.2174 H       1  ZINC001342629575    0.0800
     44 H44       -13.1702   -1.7349   53.9223 H       1  ZINC001342629575    0.0900
     45 H45       -11.9761   -0.5778   54.6002 H       1  ZINC001342629575    0.0800
     46 H46       -12.5464   -0.5517   51.9200 H       1  ZINC001342629575    0.0800
     47 H47       -10.8559   -0.3176   52.4821 H       1  ZINC001342629575    0.0800
     48 H48       -12.2123   -2.8976   51.5246 H       1  ZINC001342629575    0.0600
     49 H49       -10.6153   -2.2433   51.0511 H       1  ZINC001342629575    0.0900
     50 H50       -12.4361    0.3900   58.2211 H       1  ZINC001342629575    0.1000
     51 H51       -12.8005   -0.2083   56.5848 H       1  ZINC001342629575    0.1100
     52 H52       -14.6989   -1.5049   57.4458 H       1  ZINC001342629575    0.0600
     53 H53       -14.3048   -1.0202   59.1126 H       1  ZINC001342629575    0.0600
     54 H54       -16.9345    1.2933   58.1358 H       1  ZINC001342629575    0.0900
     55 H55       -16.8932   -0.4293   57.6894 H       1  ZINC001342629575    0.0400
     56 H56       -16.4719    0.0715   59.3446 H       1  ZINC001342629575    0.0400
     57 H57       -12.3848   -2.7373   61.0376 H       1  ZINC001342629575    0.1300
     58 H58       -14.3229   -2.4297   62.5249 H       1  ZINC001342629575    0.1200
     59 H59       -14.9879   -0.1656   63.2283 H       1  ZINC001342629575    0.1200
     60 H60       -13.7142    1.7907   62.4453 H       1  ZINC001342629575    0.1200
     61 H61       -11.7732    1.4828   60.9618 H       1  ZINC001342629575    0.1200
@<TRIPOS>BOND
     1     1     2    2
     2     1    33    1
     3     1    34    1
     4     2     3    1
     5     2    35    1
     6     3     4    1
     7     3    36    1
     8     3    37    1
     9     4     5    1
    10     4     6    1
    11     4    27    1
    12     6    22    1
    13     6     7    2
    14     7     8    1
    15     8     9    2
    16     9    10    1
    17     9    22    1
    18    10    14    1
    19    10    11    1
    20    11    12    1
    21    11    38    1
    22    11    39    1
    23    12    13    1
    24    12    40    1
    25    12    41    1
    26    13    14    1
    27    13    42    1
    28    13    43    1
    29    14    15    1
    30    14    16    1
    31    16    17    1
    32    16    21    1
    33    16    18    1
    34    18    19    1
    35    18    44    1
    36    18    45    1
    37    19    20    1
    38    19    46    1
    39    19    47    1
    40    20    21    1
    41    20    48    1
    42    20    49    1
    43    22    23    1
    44    23    24    1
    45    23    50    1
    46    23    51    1
    47    24    25    1
    48    24    52    1
    49    24    53    1
    50    25    26    1
    51    26    54    1
    52    26    55    1
    53    26    56    1
    54    27    32   ar
    55    27    28   ar
    56    28    29   ar
    57    28    57    1
    58    29    30   ar
    59    29    58    1
    60    30    31   ar
    61    30    59    1
    62    31    32   ar
    63    31    60    1
    64    32    61    1
@<TRIPOS>SUBSTRUCTURE
     1 ZINC001342629575        1 TEMP              0 ****  ****    0 ROOT


##########                                Name:    ZINC000809503567
##########                DOCK_Rotatable_Bonds:                   9
##########                         Heavy_Atoms:                  26
##########                    Molecular_Weight:             353.378
##########                DOCK_Rotatable_Bonds:                   9
##########                       Formal_Charge:          -0.0200002
##########                     HBond_Acceptors:                   7
##########                        HBond_Donors:                   1
##########                         Heavy_Atoms:                  26
##########                          Grid_Score:          -33.597256
##########                     Grid_vdw_energy:          -32.171928
##########                      Grid_es_energy:           -1.425328
##########           Internal_energy_repulsive:            7.206815

@<TRIPOS>MOLECULE
ZINC000809503567
 45 46 1 0 0
SMALL
USER_CHARGES


@<TRIPOS>ATOM
      1 C1         -9.0603   -1.4491   60.9036 C.3     1  ZINC000809503567    0.0200
      2 O2        -10.0175   -2.4876   61.1218 O.3     1  ZINC000809503567   -0.3100
      3 C3        -10.6596   -2.9730   60.0292 C.ar    1  ZINC000809503567    0.1900
      4 C4        -10.0063   -3.8371   59.1646 C.ar    1  ZINC000809503567   -0.2100
      5 C5        -10.6610   -4.3305   58.0527 C.ar    1  ZINC000809503567   -0.0200
      6 C6        -11.9716   -3.9669   57.7926 C.ar    1  ZINC000809503567   -0.1500
      7 C7        -12.6740   -4.5121   56.5759 C.3     1  ZINC000809503567    0.1700
      8 N8        -12.4393   -3.6215   55.4365 N.am    1  ZINC000809503567   -0.7000
      9 C9        -12.5523   -4.0924   54.1788 C.2     1  ZINC000809503567    0.5100
     10 O10       -12.8469   -5.2542   53.9900 O.2     1  ZINC000809503567   -0.4900
     11 C11       -12.3146   -3.1834   53.0165 C.2     1  ZINC000809503567    0.5100
     12 O12       -11.2973   -3.2872   52.3631 O.2     1  ZINC000809503567   -0.5000
     13 N13       -13.2301   -2.2483   52.6941 N.am    1  ZINC000809503567   -0.4600
     14 C14       -14.4591   -2.1242   53.4817 C.3     1  ZINC000809503567    0.0800
     15 O15       -13.0041   -1.3860   51.5938 O.3     1  ZINC000809503567   -0.1100
     16 C16       -13.0985    0.0032   51.9152 C.3     1  ZINC000809503567    0.0800
     17 C17       -12.9791    0.8197   50.6541 C.ar    1  ZINC000809503567   -0.0900
     18 C18       -13.6008    0.3954   49.4947 C.ar    1  ZINC000809503567   -0.1000
     19 C19       -13.4913    1.1444   48.3379 C.ar    1  ZINC000809503567   -0.1300
     20 C20       -12.7605    2.3178   48.3408 C.ar    1  ZINC000809503567   -0.1100
     21 C21       -12.1396    2.7425   49.5005 C.ar    1  ZINC000809503567   -0.1300
     22 C22       -12.2526    1.9957   50.6584 C.ar    1  ZINC000809503567   -0.0800
     23 C23       -12.6369   -3.1089   58.6422 C.ar    1  ZINC000809503567   -0.0100
     24 C24       -11.9886   -2.6072   59.7732 C.ar    1  ZINC000809503567   -0.0600
     25 C25       -12.6737   -1.7155   60.6598 C.1     1  ZINC000809503567    0.2600
     26 N26       -13.2172   -1.0081   61.3632 N.1     1  ZINC000809503567   -0.4100
     27 H27        -9.5534   -0.5903   60.4482 H       1  ZINC000809503567    0.0600
     28 H28        -8.6219   -1.1530   61.8567 H       1  ZINC000809503567    0.1100
     29 H29        -8.2756   -1.8118   60.2398 H       1  ZINC000809503567    0.0600
     30 H30        -8.9839   -4.1248   59.3601 H       1  ZINC000809503567    0.1400
     31 H31       -10.1475   -5.0035   57.3820 H       1  ZINC000809503567    0.1400
     32 H32       -12.2865   -5.5048   56.3469 H       1  ZINC000809503567    0.0900
     33 H33       -13.7442   -4.5762   56.7725 H       1  ZINC000809503567    0.0900
     34 H34       -12.2026   -2.6930   55.5874 H       1  ZINC000809503567    0.4100
     35 H35       -14.2973   -1.4218   54.2993 H       1  ZINC000809503567    0.0800
     36 H36       -15.2643   -1.7598   52.8437 H       1  ZINC000809503567    0.0800
     37 H37       -14.7303   -3.0986   53.8881 H       1  ZINC000809503567    0.0900
     38 H38       -14.0606    0.2024   52.3873 H       1  ZINC000809503567    0.0700
     39 H39       -12.2948    0.2731   52.6002 H       1  ZINC000809503567    0.0600
     40 H40       -14.1717   -0.5212   49.4924 H       1  ZINC000809503567    0.1200
     41 H41       -13.9764    0.8126   47.4318 H       1  ZINC000809503567    0.1200
     42 H42       -12.6743    2.9025   47.4370 H       1  ZINC000809503567    0.1200
     43 H43       -11.5683    3.6590   49.5027 H       1  ZINC000809503567    0.1200
     44 H44       -11.7675    2.3275   51.5645 H       1  ZINC000809503567    0.1300
     45 H45       -13.6590   -2.8279   58.4356 H       1  ZINC000809503567    0.1400
@<TRIPOS>BOND
     1     1     2    1
     2     1    27    1
     3     1    28    1
     4     1    29    1
     5     2     3    1
     6     3    24   ar
     7     3     4   ar
     8     4     5   ar
     9     4    30    1
    10     5     6   ar
    11     5    31    1
    12     6     7    1
    13     6    23   ar
    14     7     8    1
    15     7    32    1
    16     7    33    1
    17     8     9   am
    18     8    34    1
    19     9    10    2
    20     9    11    1
    21    11    12    2
    22    11    13   am
    23    13    14    1
    24    13    15    1
    25    14    35    1
    26    14    36    1
    27    14    37    1
    28    15    16    1
    29    16    17    1
    30    16    38    1
    31    16    39    1
    32    17    22   ar
    33    17    18   ar
    34    18    19   ar
    35    18    40    1
    36    19    20   ar
    37    19    41    1
    38    20    21   ar
    39    20    42    1
    40    21    22   ar
    41    21    43    1
    42    22    44    1
    43    23    24   ar
    44    23    45    1
    45    24    25    1
    46    25    26    3
@<TRIPOS>SUBSTRUCTURE
     1 ZINC000809503567        1 TEMP              0 ****  ****    0 ROOT


##########                                Name:    ZINC000047262406
##########                DOCK_Rotatable_Bonds:                   6
##########                         Heavy_Atoms:                  28
##########                    Molecular_Weight:             417.919
##########                DOCK_Rotatable_Bonds:                   6
##########                       Formal_Charge:          -0.0100002
##########                     HBond_Acceptors:                   9
##########                        HBond_Donors:                   1
##########                         Heavy_Atoms:                  28
##########                          Grid_Score:          -33.589520
##########                     Grid_vdw_energy:          -33.535908
##########                      Grid_es_energy:           -0.053611
##########           Internal_energy_repulsive:           11.302902

@<TRIPOS>MOLECULE
ZINC000047262406
 48 51 1 0 0
SMALL
USER_CHARGES


@<TRIPOS>ATOM
      1 C1        -13.6624   -3.6743   55.0784 C.3     1  ZINC000047262406   -0.1500
      2 C2        -13.0839   -2.2612   55.1765 C.3     1  ZINC000047262406    0.1800
      3 H3        -13.8385   -1.5375   54.8685 H       1  ZINC000047262406    0.0800
      4 C4        -11.8813   -2.1472   54.2755 C.2     1  ZINC000047262406    0.1700
      5 N5        -11.3867   -3.0944   53.5296 N.2     1  ZINC000047262406   -0.2500
      6 N6        -10.3611   -2.6505   52.8922 N.2     1  ZINC000047262406   -0.2700
      7 C7        -10.1638   -1.3903   53.2132 C.2     1  ZINC000047262406    0.2400
      8 C8         -9.0958   -0.5168   52.7042 C.2     1  ZINC000047262406   -0.1500
      9 C9         -8.9756    0.8140   52.9652 C.2     1  ZINC000047262406   -0.0600
     10 C10        -7.8875    1.4153   52.3720 C.2     1  ZINC000047262406   -0.1400
     11 C11        -7.1209    0.6046   51.6352 C.2     1  ZINC000047262406   -0.1900
     12 S12        -7.7695   -1.0292   51.6688 S.3     1  ZINC000047262406    0.1700
     13 O13       -11.1282   -1.0473   54.0919 O.3     1  ZINC000047262406   -0.2200
     14 N14       -12.6837   -1.9911   56.5638 N.3     1  ZINC000047262406   -0.5200
     15 C15       -12.8146   -0.5632   56.8808 C.3     1  ZINC000047262406    0.0500
     16 C16       -12.5305   -0.3413   58.3681 C.3     1  ZINC000047262406   -0.1000
     17 C17       -11.1145   -0.8271   58.6903 C.3     1  ZINC000047262406   -0.1100
     18 C18       -10.8505   -0.6665   60.1652 C.2     1  ZINC000047262406    0.5100
     19 O19       -11.4054   -1.3919   60.9632 O.2     1  ZINC000047262406   -0.4600
     20 N20        -9.9974    0.2832   60.5976 N.am    1  ZINC000047262406   -0.6600
     21 C21        -9.7530    0.4319   61.9625 C.ar    1  ZINC000047262406    0.3600
     22 C22        -9.0021   -0.5247   62.6354 C.ar    1  ZINC000047262406   -0.2000
     23 C23        -8.7664   -0.3654   63.9898 C.ar    1  ZINC000047262406   -0.0400
     24 C24        -9.2927    0.7507   64.6270 C.ar    1  ZINC000047262406   -0.1200
     25 Cl25       -9.0264    0.9991   66.3244 Cl      1  ZINC000047262406   -0.0500
     26 C26       -10.0305    1.6620   63.8949 C.ar    1  ZINC000047262406    0.1500
     27 N27       -10.2340    1.4853   62.6037 N.ar    1  ZINC000047262406   -0.4600
     28 C28       -10.9904   -2.3041   58.3060 C.3     1  ZINC000047262406   -0.1100
     29 C29       -11.3191   -2.4690   56.8205 C.3     1  ZINC000047262406    0.0600
     30 H30       -14.5322   -3.7567   55.7302 H       1  ZINC000047262406    0.0800
     31 H31       -13.9593   -3.8747   54.0490 H       1  ZINC000047262406    0.0700
     32 H32       -12.9077   -4.3980   55.3864 H       1  ZINC000047262406    0.0800
     33 H33        -9.6757    1.3537   53.5859 H       1  ZINC000047262406    0.1600
     34 H34        -7.6695    2.4661   52.4930 H       1  ZINC000047262406    0.1600
     35 H35        -6.2322    0.9078   51.1017 H       1  ZINC000047262406    0.1800
     36 H36       -12.1017    0.0077   56.2858 H       1  ZINC000047262406    0.0400
     37 H37       -13.8271   -0.2315   56.6511 H       1  ZINC000047262406    0.0900
     38 H38       -12.6124    0.7206   58.5998 H       1  ZINC000047262406    0.0800
     39 H39       -13.2516   -0.9011   58.9638 H       1  ZINC000047262406    0.0900
     40 H40       -10.3907   -0.2405   58.1246 H       1  ZINC000047262406    0.1000
     41 H41        -9.5536    0.8634   59.9593 H       1  ZINC000047262406    0.4200
     42 H42        -8.6081   -1.3811   62.1084 H       1  ZINC000047262406    0.1500
     43 H43        -8.1867   -1.0927   64.5388 H       1  ZINC000047262406    0.1500
     44 H44       -10.4425    2.5315   64.3855 H       1  ZINC000047262406    0.1700
     45 H45        -9.9720   -2.6444   58.4933 H       1  ZINC000047262406    0.0700
     46 H46       -11.6873   -2.8947   58.9007 H       1  ZINC000047262406    0.0800
     47 H47       -11.2455   -3.5216   56.5470 H       1  ZINC000047262406    0.0700
     48 H48       -10.6133   -1.8892   56.2257 H       1  ZINC000047262406    0.0400
@<TRIPOS>BOND
     1     1     2    1
     2     1    30    1
     3     1    31    1
     4     1    32    1
     5     2     3    1
     6     2     4    1
     7     2    14    1
     8     4    13    1
     9     4     5    2
    10     5     6    1
    11     6     7    2
    12     7     8    1
    13     7    13    1
    14     8    12    1
    15     8     9    2
    16     9    10    1
    17     9    33    1
    18    10    11    2
    19    10    34    1
    20    11    12    1
    21    11    35    1
    22    14    29    1
    23    14    15    1
    24    15    16    1
    25    15    36    1
    26    15    37    1
    27    16    17    1
    28    16    38    1
    29    16    39    1
    30    17    18    1
    31    17    28    1
    32    17    40    1
    33    18    19    2
    34    18    20   am
    35    20    21    1
    36    20    41    1
    37    21    27   ar
    38    21    22   ar
    39    22    23   ar
    40    22    42    1
    41    23    24   ar
    42    23    43    1
    43    24    25    1
    44    24    26   ar
    45    26    27   ar
    46    26    44    1
    47    28    29    1
    48    28    45    1
    49    28    46    1
    50    29    47    1
    51    29    48    1
@<TRIPOS>SUBSTRUCTURE
     1 ZINC000047262406        1 TEMP              0 ****  ****    0 ROOT


##########                                Name:    ZINC000893400114
##########                DOCK_Rotatable_Bonds:                   6
##########                         Heavy_Atoms:                  27
##########                    Molecular_Weight:             381.472
##########                DOCK_Rotatable_Bonds:                   6
##########                       Formal_Charge:           0.0300001
##########                     HBond_Acceptors:                   8
##########                        HBond_Donors:                   1
##########                         Heavy_Atoms:                  27
##########                          Grid_Score:          -33.553631
##########                     Grid_vdw_energy:          -31.110748
##########                      Grid_es_energy:           -2.442883
##########           Internal_energy_repulsive:           82.680084

@<TRIPOS>MOLECULE
ZINC000893400114
 58 61 1 0 0
SMALL
USER_CHARGES


@<TRIPOS>ATOM
      1 O1        -12.2561   -1.1573   58.9530 O.2     1  ZINC000893400114   -0.5600
      2 C2        -11.1737   -1.2066   59.5048 C.2     1  ZINC000893400114    0.7100
      3 N3        -10.9256   -0.4231   60.5730 N.am    1  ZINC000893400114   -0.7300
      4 C4        -11.9580    0.4920   61.0658 C.3     1  ZINC000893400114    0.1400
      5 H5        -12.9000    0.3187   60.5455 H       1  ZINC000893400114    0.1200
      6 C6        -11.5065    1.9608   60.8928 C.3     1  ZINC000893400114   -0.1400
      7 C7        -10.8756    2.2607   62.2707 C.3     1  ZINC000893400114    0.1000
      8 N8        -11.5268    1.3386   63.2085 N.am    1  ZINC000893400114   -0.6200
      9 C9        -11.5130    1.4947   64.6652 C.3     1  ZINC000893400114    0.1600
     10 C10       -10.5816    2.6489   65.0480 C.3     1  ZINC000893400114   -0.1700
     11 C11       -10.6342    2.8555   66.5640 C.3     1  ZINC000893400114    0.0700
     12 O12       -11.9823    3.1133   66.9617 O.3     1  ZINC000893400114   -0.3800
     13 C13       -12.8900    2.0484   66.6718 C.3     1  ZINC000893400114    0.0700
     14 C14       -12.9280    1.8094   65.1601 C.3     1  ZINC000893400114   -0.1700
     15 C15       -12.1402    0.3301   62.5588 C.2     1  ZINC000893400114    0.5100
     16 O16       -12.7476   -0.5732   63.0937 O.2     1  ZINC000893400114   -0.4900
     17 N17       -10.2239   -2.0486   59.0514 N.am    1  ZINC000893400114   -0.6300
     18 C18        -8.9086   -2.1299   59.7062 C.3     1  ZINC000893400114    0.0800
     19 C19        -8.6014   -3.6043   59.9924 C.3     1  ZINC000893400114    0.0500
     20 O20        -8.7596   -4.3601   58.7894 O.3     1  ZINC000893400114   -0.3800
     21 C21       -10.0884   -4.3500   58.2621 C.3     1  ZINC000893400114    0.0600
     22 C22       -10.4737   -2.9179   57.8908 C.3     1  ZINC000893400114    0.1400
     23 H23        -9.8678   -2.5812   57.0496 H       1  ZINC000893400114    0.0800
     24 C24       -11.9553   -2.8646   57.5127 C.3     1  ZINC000893400114   -0.1200
     25 C25       -12.2456   -3.9144   56.4381 C.3     1  ZINC000893400114    0.0700
     26 H26       -11.3100   -4.3367   56.0716 H       1  ZINC000893400114    0.0800
     27 C27       -13.0213   -3.2679   55.2703 C.3     1  ZINC000893400114   -0.1500
     28 C28       -14.0389   -4.3795   54.8952 C.3     1  ZINC000893400114   -0.1600
     29 C29       -14.3246   -4.9985   56.2867 C.3     1  ZINC000893400114    0.0500
     30 O30       -13.0671   -4.9534   56.9834 O.3     1  ZINC000893400114   -0.3800
     31 H31       -10.0635   -0.4653   61.0156 H       1  ZINC000893400114    0.4000
     32 H32       -10.7667    2.0504   60.0973 H       1  ZINC000893400114    0.1000
     33 H33       -12.3602    2.6118   60.7047 H       1  ZINC000893400114    0.1000
     34 H34        -9.8020    2.0742   62.2426 H       1  ZINC000893400114    0.0700
     35 H35       -11.0723    3.2933   62.5590 H       1  ZINC000893400114    0.0800
     36 H36       -11.1617    0.5722   65.1274 H       1  ZINC000893400114    0.0900
     37 H37        -9.5615    2.4084   64.7483 H       1  ZINC000893400114    0.0800
     38 H38       -10.9048    3.5601   64.5448 H       1  ZINC000893400114    0.0900
     39 H39       -10.2725    1.9581   67.0659 H       1  ZINC000893400114    0.0500
     40 H40       -10.0060    3.7033   66.8374 H       1  ZINC000893400114    0.1000
     41 H41       -12.5578    1.1405   67.1751 H       1  ZINC000893400114    0.0500
     42 H42       -13.8869    2.3148   67.0229 H       1  ZINC000893400114    0.1000
     43 H43       -13.2987    2.7037   64.6592 H       1  ZINC000893400114    0.0900
     44 H44       -13.5860    0.9687   64.9407 H       1  ZINC000893400114    0.0700
     45 H45        -8.1446   -1.7168   59.0476 H       1  ZINC000893400114    0.0800
     46 H46        -8.9291   -1.5709   60.6416 H       1  ZINC000893400114    0.0800
     47 H47        -7.5763   -3.6997   60.3502 H       1  ZINC000893400114    0.1100
     48 H48        -9.2889   -3.9788   60.7507 H       1  ZINC000893400114    0.0500
     49 H49       -10.1331   -4.9820   57.3752 H       1  ZINC000893400114    0.1300
     50 H50       -10.7813   -4.7273   59.0142 H       1  ZINC000893400114    0.0500
     51 H51       -12.5629   -3.0692   58.3941 H       1  ZINC000893400114    0.0800
     52 H52       -12.1965   -1.8738   57.1272 H       1  ZINC000893400114    0.1100
     53 H53       -13.5364   -2.3654   55.5993 H       1  ZINC000893400114    0.0800
     54 H54       -12.3557   -3.0531   54.4343 H       1  ZINC000893400114    0.0800
     55 H55       -14.9436   -3.9538   54.4614 H       1  ZINC000893400114    0.0800
     56 H56       -13.5907   -5.1121   54.2239 H       1  ZINC000893400114    0.0800
     57 H57       -15.0729   -4.4089   56.8165 H       1  ZINC000893400114    0.0600
     58 H58       -14.6605   -6.0300   56.1803 H       1  ZINC000893400114    0.0800
@<TRIPOS>BOND
     1     1     2    2
     2     2     3   am
     3     2    17   am
     4     3     4    1
     5     3    31    1
     6     4     5    1
     7     4    15    1
     8     4     6    1
     9     6     7    1
    10     6    32    1
    11     6    33    1
    12     7     8    1
    13     7    34    1
    14     7    35    1
    15     8     9    1
    16     8    15   am
    17     9    14    1
    18     9    10    1
    19     9    36    1
    20    10    11    1
    21    10    37    1
    22    10    38    1
    23    11    12    1
    24    11    39    1
    25    11    40    1
    26    12    13    1
    27    13    14    1
    28    13    41    1
    29    13    42    1
    30    14    43    1
    31    14    44    1
    32    15    16    2
    33    17    22    1
    34    17    18    1
    35    18    19    1
    36    18    45    1
    37    18    46    1
    38    19    20    1
    39    19    47    1
    40    19    48    1
    41    20    21    1
    42    21    22    1
    43    21    49    1
    44    21    50    1
    45    22    23    1
    46    22    24    1
    47    24    25    1
    48    24    51    1
    49    24    52    1
    50    25    26    1
    51    25    30    1
    52    25    27    1
    53    27    28    1
    54    27    53    1
    55    27    54    1
    56    28    29    1
    57    28    55    1
    58    28    56    1
    59    29    30    1
    60    29    57    1
    61    29    58    1
@<TRIPOS>SUBSTRUCTURE
     1 ZINC000893400114        1 TEMP              0 ****  ****    0 ROOT


##########                                Name:    ZINC000011157684
##########                DOCK_Rotatable_Bonds:                   7
##########                         Heavy_Atoms:                  25
##########                    Molecular_Weight:             374.866
##########                DOCK_Rotatable_Bonds:                   7
##########                       Formal_Charge:           0.0400001
##########                     HBond_Acceptors:                   6
##########                        HBond_Donors:                   2
##########                         Heavy_Atoms:                  25
##########                          Grid_Score:          -33.547977
##########                     Grid_vdw_energy:          -32.790844
##########                      Grid_es_energy:           -0.757133
##########           Internal_energy_repulsive:            9.501535

@<TRIPOS>MOLECULE
ZINC000011157684
 41 43 1 0 0
SMALL
USER_CHARGES


@<TRIPOS>ATOM
      1 O1        -10.1965   -5.2051   57.2642 O.2     1  ZINC000011157684   -0.5200
      2 C2        -10.5438   -4.1921   57.8336 C.2     1  ZINC000011157684    0.5100
      3 C3         -9.7248   -3.6524   58.9778 C.3     1  ZINC000011157684    0.1000
      4 N4        -10.6035   -3.3646   60.1141 N.pl3   1  ZINC000011157684   -0.7300
      5 C5        -10.3412   -2.2668   60.9408 C.ar    1  ZINC000011157684    0.2200
      6 C6         -9.0623   -2.0625   61.4400 C.ar    1  ZINC000011157684   -0.1600
      7 C7         -8.8051   -0.9774   62.2559 C.ar    1  ZINC000011157684   -0.0900
      8 C8         -9.8218   -0.0942   62.5764 C.ar    1  ZINC000011157684    0.0500
      9 F9         -9.5678    0.9656   63.3748 F       1  ZINC000011157684   -0.1400
     10 C10       -11.0988   -0.2951   62.0795 C.ar    1  ZINC000011157684   -0.0900
     11 C11       -11.3596   -1.3759   61.2589 C.ar    1  ZINC000011157684   -0.0900
     12 Cl12      -12.9604   -1.6277   60.6362 Cl      1  ZINC000011157684   -0.0500
     13 N13       -11.6589   -3.5459   57.4395 N.am    1  ZINC000011157684   -0.7200
     14 C14       -12.4550   -4.0706   56.3272 C.3     1  ZINC000011157684    0.2600
     15 H15       -12.4250   -5.1601   56.3410 H       1  ZINC000011157684    0.1200
     16 C16       -11.8889   -3.5690   55.0237 C.2     1  ZINC000011157684   -0.1900
     17 C17       -11.3322   -2.3713   54.8373 C.2     1  ZINC000011157684   -0.1200
     18 C18       -10.8809   -2.1317   53.5508 C.2     1  ZINC000011157684   -0.1300
     19 C19       -11.0713   -3.1348   52.6924 C.2     1  ZINC000011157684   -0.2100
     20 S20       -11.8546   -4.4763   53.5174 S.3     1  ZINC000011157684    0.1100
     21 C21       -13.8817   -3.6056   56.4673 C.ar    1  ZINC000011157684   -0.0900
     22 C22       -14.6327   -3.3302   55.3400 C.ar    1  ZINC000011157684   -0.1100
     23 C23       -15.9413   -2.9037   55.4685 C.ar    1  ZINC000011157684   -0.1100
     24 C24       -16.4990   -2.7532   56.7243 C.ar    1  ZINC000011157684   -0.1100
     25 C25       -15.7483   -3.0295   57.8516 C.ar    1  ZINC000011157684   -0.1100
     26 C26       -14.4410   -3.4601   57.7231 C.ar    1  ZINC000011157684   -0.1000
     27 H27        -8.9803   -4.3921   59.2725 H       1  ZINC000011157684    0.1000
     28 H28        -9.2232   -2.7365   58.6654 H       1  ZINC000011157684    0.1000
     29 H29       -11.3672   -3.9352   60.2934 H       1  ZINC000011157684    0.4200
     30 H30        -8.2686   -2.7513   61.1910 H       1  ZINC000011157684    0.1400
     31 H31        -7.8101   -0.8183   62.6442 H       1  ZINC000011157684    0.1400
     32 H32       -11.8905    0.3953   62.3306 H       1  ZINC000011157684    0.1500
     33 H33       -11.9344   -2.7336   57.8924 H       1  ZINC000011157684    0.4000
     34 H34       -11.2407   -1.6435   55.6300 H       1  ZINC000011157684    0.1400
     35 H35       -10.4107   -1.2027   53.2638 H       1  ZINC000011157684    0.1400
     36 H36       -10.7849   -3.1260   51.6511 H       1  ZINC000011157684    0.1700
     37 H37       -14.1969   -3.4478   54.3588 H       1  ZINC000011157684    0.1200
     38 H38       -16.5278   -2.6879   54.5876 H       1  ZINC000011157684    0.1300
     39 H39       -17.5213   -2.4192   56.8247 H       1  ZINC000011157684    0.1300
     40 H40       -16.1839   -2.9115   58.8328 H       1  ZINC000011157684    0.1300
     41 H41       -13.8545   -3.6760   58.6038 H       1  ZINC000011157684    0.1300
@<TRIPOS>BOND
     1     1     2    2
     2     2     3    1
     3     2    13   am
     4     3     4    1
     5     3    27    1
     6     3    28    1
     7     4     5    1
     8     4    29    1
     9     5    11   ar
    10     5     6   ar
    11     6     7   ar
    12     6    30    1
    13     7     8   ar
    14     7    31    1
    15     8     9    1
    16     8    10   ar
    17    10    11   ar
    18    10    32    1
    19    11    12    1
    20    13    14    1
    21    13    33    1
    22    14    15    1
    23    14    16    1
    24    14    21    1
    25    16    20    1
    26    16    17    2
    27    17    18    1
    28    17    34    1
    29    18    19    2
    30    18    35    1
    31    19    20    1
    32    19    36    1
    33    21    26   ar
    34    21    22   ar
    35    22    23   ar
    36    22    37    1
    37    23    24   ar
    38    23    38    1
    39    24    25   ar
    40    24    39    1
    41    25    26   ar
    42    25    40    1
    43    26    41    1
@<TRIPOS>SUBSTRUCTURE
     1 ZINC000011157684        1 TEMP              0 ****  ****    0 ROOT


##########                                Name:    ZINC000420486261
##########                DOCK_Rotatable_Bonds:                   7
##########                         Heavy_Atoms:                  26
##########                    Molecular_Weight:             353.378
##########                DOCK_Rotatable_Bonds:                   7
##########                       Formal_Charge:        -2.98023e-08
##########                     HBond_Acceptors:                   7
##########                        HBond_Donors:                   0
##########                         Heavy_Atoms:                  26
##########                          Grid_Score:          -33.543453
##########                     Grid_vdw_energy:          -31.835981
##########                      Grid_es_energy:           -1.707472
##########           Internal_energy_repulsive:           16.480703

@<TRIPOS>MOLECULE
ZINC000420486261
 45 47 1 0 0
SMALL
USER_CHARGES


@<TRIPOS>ATOM
      1 C1         -8.3984   -0.0574   63.8510 C.3     1  ZINC000420486261    0.0400
      2 O2         -9.7501   -0.2124   63.3437 O.3     1  ZINC000420486261   -0.3500
      3 C3        -10.7228    0.4705   63.9770 C.2     1  ZINC000420486261    0.5100
      4 O4        -10.4426    1.2195   64.8908 O.2     1  ZINC000420486261   -0.4900
      5 C5        -12.1338    0.3081   63.5590 C.ar    1  ZINC000420486261   -0.0700
      6 C6        -13.1709    0.9021   64.2858 C.ar    1  ZINC000420486261   -0.0900
      7 C7        -14.4774    0.7281   63.8635 C.ar    1  ZINC000420486261    0.1100
      8 N8        -14.7554    0.0149   62.7938 N.ar    1  ZINC000420486261   -0.4200
      9 C9        -13.8061   -0.5678   62.0720 C.ar    1  ZINC000420486261    0.1900
     10 C10       -14.1761   -1.3587   60.8770 C.2     1  ZINC000420486261    0.2200
     11 N11       -13.3588   -1.7871   59.9349 N.2     1  ZINC000420486261   -0.4300
     12 C12       -14.1370   -2.4570   59.0589 C.2     1  ZINC000420486261    0.2200
     13 C13       -13.6836   -3.1317   57.8182 C.ar    1  ZINC000420486261   -0.0600
     14 C14       -14.6104   -3.5162   56.8522 C.ar    1  ZINC000420486261   -0.0300
     15 C15       -14.1834   -4.1436   55.6994 C.ar    1  ZINC000420486261   -0.1600
     16 C16       -12.8371   -4.3926   55.4990 C.ar    1  ZINC000420486261   -0.0600
     17 C17       -11.9090   -4.0155   56.4508 C.ar    1  ZINC000420486261   -0.2200
     18 C18       -12.3230   -3.3795   57.6105 C.ar    1  ZINC000420486261    0.1700
     19 O19       -11.4120   -3.0082   58.5466 O.3     1  ZINC000420486261   -0.2900
     20 C20       -10.0493   -3.3616   58.3016 C.3     1  ZINC000420486261    0.0600
     21 C21        -9.1659   -2.7863   59.4105 C.3     1  ZINC000420486261   -0.0900
     22 C22        -9.1555   -1.2594   59.3136 C.3     1  ZINC000420486261   -0.1500
     23 C23        -9.7195   -3.2070   60.7734 C.3     1  ZINC000420486261   -0.1500
     24 N24       -15.3657   -2.4017   59.5068 N.2     1  ZINC000420486261   -0.3400
     25 O25       -15.4063   -1.7817   60.5483 O.3     1  ZINC000420486261    0.1000
     26 C26       -12.4643   -0.4379   62.4246 C.ar    1  ZINC000420486261   -0.0700
     27 H27        -7.7145   -0.6595   63.2527 H       1  ZINC000420486261    0.1100
     28 H28        -8.1062    0.9911   63.7919 H       1  ZINC000420486261    0.0700
     29 H29        -8.3598   -0.3874   64.8891 H       1  ZINC000420486261    0.0700
     30 H30       -12.9548    1.4894   65.1660 H       1  ZINC000420486261    0.1600
     31 H31       -15.2815    1.1848   64.4214 H       1  ZINC000420486261    0.1800
     32 H32       -15.6620   -3.3238   57.0052 H       1  ZINC000420486261    0.1400
     33 H33       -14.9029   -4.4417   54.9511 H       1  ZINC000420486261    0.1300
     34 H34       -12.5102   -4.8844   54.5948 H       1  ZINC000420486261    0.1300
     35 H35       -10.8596   -4.2125   56.2888 H       1  ZINC000420486261    0.1400
     36 H36        -9.9526   -4.4472   58.2865 H       1  ZINC000420486261    0.0600
     37 H37        -9.7359   -2.9555   57.3399 H       1  ZINC000420486261    0.0600
     38 H38        -8.1498   -3.1645   59.2986 H       1  ZINC000420486261    0.0800
     39 H39       -10.1716   -0.8813   59.4255 H       1  ZINC000420486261    0.0600
     40 H40        -8.5261   -0.8495   60.1035 H       1  ZINC000420486261    0.0700
     41 H41        -8.7611   -0.9597   58.3426 H       1  ZINC000420486261    0.0600
     42 H42       -10.7356   -2.8288   60.8853 H       1  ZINC000420486261    0.0500
     43 H43        -9.7270   -4.2948   60.8424 H       1  ZINC000420486261    0.0600
     44 H44        -9.0902   -2.7971   61.5635 H       1  ZINC000420486261    0.0600
     45 H45       -11.6934   -0.9125   61.8357 H       1  ZINC000420486261    0.1600
@<TRIPOS>BOND
     1     1     2    1
     2     1    27    1
     3     1    28    1
     4     1    29    1
     5     2     3    1
     6     3     4    2
     7     3     5    1
     8     5    26   ar
     9     5     6   ar
    10     6     7   ar
    11     6    30    1
    12     7     8   ar
    13     7    31    1
    14     8     9   ar
    15     9    10    1
    16     9    26   ar
    17    10    25    1
    18    10    11    2
    19    11    12    1
    20    12    13    1
    21    12    24    2
    22    13    18   ar
    23    13    14   ar
    24    14    15   ar
    25    14    32    1
    26    15    16   ar
    27    15    33    1
    28    16    17   ar
    29    16    34    1
    30    17    18   ar
    31    17    35    1
    32    18    19    1
    33    19    20    1
    34    20    21    1
    35    20    36    1
    36    20    37    1
    37    21    22    1
    38    21    23    1
    39    21    38    1
    40    22    39    1
    41    22    40    1
    42    22    41    1
    43    23    42    1
    44    23    43    1
    45    23    44    1
    46    24    25    1
    47    26    45    1
@<TRIPOS>SUBSTRUCTURE
     1 ZINC000420486261        1 TEMP              0 ****  ****    0 ROOT


##########                                Name:    ZINC000481050680
##########                DOCK_Rotatable_Bonds:                   7
##########                         Heavy_Atoms:                  29
##########                    Molecular_Weight:              412.46
##########                DOCK_Rotatable_Bonds:                   7
##########                       Formal_Charge:          -0.0199997
##########                     HBond_Acceptors:                   7
##########                        HBond_Donors:                   1
##########                         Heavy_Atoms:                  29
##########                          Grid_Score:          -33.522591
##########                     Grid_vdw_energy:          -28.274055
##########                      Grid_es_energy:           -5.248535
##########           Internal_energy_repulsive:           13.463650

@<TRIPOS>MOLECULE
ZINC000481050680
 47 49 1 0 0
SMALL
USER_CHARGES


@<TRIPOS>ATOM
      1 N1         -8.2727    1.1030   67.2939 N.1     1  ZINC000481050680   -0.3900
      2 C2         -9.0912    1.2212   66.5152 C.1     1  ZINC000481050680    0.2500
      3 C3        -10.1231    1.3702   65.5336 C.ar    1  ZINC000481050680    0.0200
      4 C4        -11.4618    1.4227   65.9263 C.ar    1  ZINC000481050680   -0.0800
      5 C5        -12.4521    1.5669   64.9763 C.ar    1  ZINC000481050680   -0.0800
      6 C6        -12.1220    1.6595   63.6365 C.ar    1  ZINC000481050680   -0.1000
      7 C7        -13.2093    1.8169   62.6050 C.3     1  ZINC000481050680   -0.5900
      8 S8        -13.7971    0.1794   62.0913 S.o2    1  ZINC000481050680    2.6000
      9 O9        -13.3970   -0.8107   63.0286 O.2     1  ZINC000481050680   -0.9300
     10 O10       -15.1397    0.2532   61.6315 O.2     1  ZINC000481050680   -0.9400
     11 N11       -12.9182   -0.1670   60.7311 N.am    1  ZINC000481050680   -1.1100
     12 C12       -13.1275   -1.4345   60.0269 C.3     1  ZINC000481050680    0.2100
     13 H13       -12.9294   -2.2641   60.7056 H       1  ZINC000481050680    0.1000
     14 C14       -12.1770   -1.5161   58.8306 C.3     1  ZINC000481050680   -0.0800
     15 C15       -10.9049   -2.2089   59.2461 C.ar    1  ZINC000481050680   -0.0900
     16 C16       -10.3981   -3.2414   58.4794 C.ar    1  ZINC000481050680   -0.1200
     17 C17        -9.2312   -3.8770   58.8605 C.ar    1  ZINC000481050680   -0.1200
     18 C18        -8.5709   -3.4797   60.0082 C.ar    1  ZINC000481050680   -0.1200
     19 C19        -9.0773   -2.4467   60.7745 C.ar    1  ZINC000481050680   -0.1200
     20 C20       -10.2419   -1.8082   60.3910 C.ar    1  ZINC000481050680   -0.1200
     21 C21       -14.5524   -1.5108   59.5426 C.ar    1  ZINC000481050680   -0.1300
     22 C22       -15.0091   -0.6152   58.5947 C.ar    1  ZINC000481050680   -0.0700
     23 C23       -16.3166   -0.6850   58.1502 C.ar    1  ZINC000481050680   -0.1300
     24 C24       -17.1682   -1.6503   58.6537 C.ar    1  ZINC000481050680   -0.0900
     25 C25       -16.7137   -2.5468   59.6024 C.ar    1  ZINC000481050680   -0.1500
     26 C26       -15.4030   -2.4822   60.0433 C.ar    1  ZINC000481050680    0.1100
     27 F27       -14.9577   -3.3581   60.9704 F       1  ZINC000481050680   -0.1400
     28 C28       -10.7954    1.6087   63.2384 C.ar    1  ZINC000481050680    0.1200
     29 F29       -10.4804    1.7003   61.9278 F       1  ZINC000481050680   -0.1200
     30 C30        -9.7942    1.4695   64.1802 C.ar    1  ZINC000481050680   -0.1000
     31 H31       -11.7221    1.3502   66.9720 H       1  ZINC000481050680    0.1500
     32 H32       -13.4878    1.6071   65.2798 H       1  ZINC000481050680    0.1500
     33 H33       -14.0372    2.3822   63.0330 H       1  ZINC000481050680    0.1500
     34 H34       -12.8148    2.3493   61.7396 H       1  ZINC000481050680    0.1500
     35 H35       -12.2649    0.4694   60.4007 H       1  ZINC000481050680    0.4200
     36 H36       -12.6518   -2.0795   58.0273 H       1  ZINC000481050680    0.0900
     37 H37       -11.9456   -0.5100   58.4813 H       1  ZINC000481050680    0.0900
     38 H38       -10.9139   -3.5518   57.5827 H       1  ZINC000481050680    0.1200
     39 H39        -8.8355   -4.6841   58.2618 H       1  ZINC000481050680    0.1200
     40 H40        -7.6596   -3.9768   60.3064 H       1  ZINC000481050680    0.1200
     41 H41        -8.5616   -2.1366   61.6713 H       1  ZINC000481050680    0.1200
     42 H42       -10.6375   -1.0012   60.9897 H       1  ZINC000481050680    0.1200
     43 H43       -14.3447    0.1398   58.2011 H       1  ZINC000481050680    0.1300
     44 H44       -16.6726    0.0154   57.4092 H       1  ZINC000481050680    0.1300
     45 H45       -18.1894   -1.7036   58.3061 H       1  ZINC000481050680    0.1300
     46 H46       -17.3796   -3.3005   59.9961 H       1  ZINC000481050680    0.1400
     47 H47        -8.7605    1.4302   63.8700 H       1  ZINC000481050680    0.1600
@<TRIPOS>BOND
     1     1     2    3
     2     2     3    1
     3     3    30   ar
     4     3     4   ar
     5     4     5   ar
     6     4    31    1
     7     5     6   ar
     8     5    32    1
     9     6     7    1
    10     6    28   ar
    11     7     8    1
    12     7    33    1
    13     7    34    1
    14     8     9    2
    15     8    10    2
    16     8    11   am
    17    11    12    1
    18    11    35    1
    19    12    13    1
    20    12    14    1
    21    12    21    1
    22    14    15    1
    23    14    36    1
    24    14    37    1
    25    15    20   ar
    26    15    16   ar
    27    16    17   ar
    28    16    38    1
    29    17    18   ar
    30    17    39    1
    31    18    19   ar
    32    18    40    1
    33    19    20   ar
    34    19    41    1
    35    20    42    1
    36    21    26   ar
    37    21    22   ar
    38    22    23   ar
    39    22    43    1
    40    23    24   ar
    41    23    44    1
    42    24    25   ar
    43    24    45    1
    44    25    26   ar
    45    25    46    1
    46    26    27    1
    47    28    29    1
    48    28    30   ar
    49    30    47    1
@<TRIPOS>SUBSTRUCTURE
     1 ZINC000481050680        1 TEMP              0 ****  ****    0 ROOT


##########                                Name:    ZINC000274267583
##########                DOCK_Rotatable_Bonds:                   5
##########                         Heavy_Atoms:                  24
##########                    Molecular_Weight:             349.407
##########                DOCK_Rotatable_Bonds:                   5
##########                       Formal_Charge:           0.0300001
##########                     HBond_Acceptors:                   7
##########                        HBond_Donors:                   1
##########                         Heavy_Atoms:                  24
##########                          Grid_Score:          -33.518723
##########                     Grid_vdw_energy:          -32.696941
##########                      Grid_es_energy:           -0.821781
##########           Internal_energy_repulsive:           16.724121

@<TRIPOS>MOLECULE
ZINC000274267583
 43 45 1 0 0
SMALL
USER_CHARGES


@<TRIPOS>ATOM
      1 C1         -8.5252    0.8312   66.1226 C.3     1  ZINC000274267583    0.0200
      2 O2         -9.1232    1.5293   65.0285 O.3     1  ZINC000274267583   -0.3100
      3 C3         -9.1654    0.8832   63.8336 C.ar    1  ZINC000274267583    0.1900
      4 C4         -9.7259    1.5046   62.7271 C.ar    1  ZINC000274267583   -0.2300
      5 C5         -9.7671    0.8459   61.5135 C.ar    1  ZINC000274267583    0.0300
      6 C6         -9.2509   -0.4319   61.4012 C.ar    1  ZINC000274267583   -0.7200
      7 S7         -9.3056   -1.2696   59.8522 S.o2    1  ZINC000274267583    2.7000
      8 O8         -8.6374   -0.4318   58.9190 O.2     1  ZINC000274267583   -0.9500
      9 O9         -8.9173   -2.6123   60.1081 O.2     1  ZINC000274267583   -0.9500
     10 N10       -10.8919   -1.3235   59.3797 N.am    1  ZINC000274267583   -1.1100
     11 C11       -11.8844   -1.9966   60.2213 C.3     1  ZINC000274267583    0.2100
     12 H12       -11.3925   -2.7640   60.8189 H       1  ZINC000274267583    0.1000
     13 C13       -12.5433   -0.9730   61.1493 C.3     1  ZINC000274267583   -0.1800
     14 C14       -13.7666   -1.6304   61.8009 C.3     1  ZINC000274267583    0.0600
     15 O15       -14.7180   -1.9254   60.7774 O.3     1  ZINC000274267583   -0.3100
     16 C16       -14.2765   -2.5758   59.6683 C.ar    1  ZINC000274267583    0.1100
     17 C17       -15.2131   -3.1903   58.8440 C.ar    1  ZINC000274267583   -0.1100
     18 C18       -14.8077   -3.8569   57.7058 C.ar    1  ZINC000274267583   -0.1600
     19 C19       -13.4606   -3.9146   57.3814 C.ar    1  ZINC000274267583    0.0900
     20 O20       -13.0575   -4.5681   56.2592 O.3     1  ZINC000274267583   -0.3200
     21 C21       -14.0694   -5.2214   55.4900 C.3     1  ZINC000274267583    0.0300
     22 C22       -12.5262   -3.3046   58.2030 C.ar    1  ZINC000274267583   -0.1000
     23 C23       -12.9324   -2.6368   59.3466 C.ar    1  ZINC000274267583   -0.1400
     24 C24        -8.6914   -1.0532   62.5025 C.ar    1  ZINC000274267583    0.0200
     25 C25        -8.6430   -0.3967   63.7170 C.ar    1  ZINC000274267583   -0.1700
     26 H26        -9.0740   -0.0920   66.3081 H       1  ZINC000274267583    0.0600
     27 H27        -7.4889    0.5955   65.8803 H       1  ZINC000274267583    0.0600
     28 H28        -8.5563    1.4579   67.0140 H       1  ZINC000274267583    0.1100
     29 H29       -10.1298    2.5023   62.8144 H       1  ZINC000274267583    0.1400
     30 H30       -10.2033    1.3292   60.6518 H       1  ZINC000274267583    0.1400
     31 H31       -11.1640   -0.9096   58.5457 H       1  ZINC000274267583    0.4200
     32 H32       -11.8361   -0.6674   61.9203 H       1  ZINC000274267583    0.1000
     33 H33       -12.8574   -0.1030   60.5726 H       1  ZINC000274267583    0.0900
     34 H34       -13.4661   -2.5520   62.2994 H       1  ZINC000274267583    0.0700
     35 H35       -14.2077   -0.9470   62.5264 H       1  ZINC000274267583    0.1200
     36 H36       -16.2624   -3.1458   59.0960 H       1  ZINC000274267583    0.1400
     37 H37       -15.5382   -4.3333   57.0689 H       1  ZINC000274267583    0.1400
     38 H38       -14.5646   -5.9731   56.1048 H       1  ZINC000274267583    0.0600
     39 H39       -14.8014   -4.4868   55.1543 H       1  ZINC000274267583    0.0600
     40 H40       -13.6140   -5.7024   54.6244 H       1  ZINC000274267583    0.1000
     41 H41       -11.4771   -3.3498   57.9504 H       1  ZINC000274267583    0.1300
     42 H42        -8.2885   -2.0512   62.4122 H       1  ZINC000274267583    0.1500
     43 H43        -8.2059   -0.8824   64.5769 H       1  ZINC000274267583    0.1400
@<TRIPOS>BOND
     1     1     2    1
     2     1    26    1
     3     1    27    1
     4     1    28    1
     5     2     3    1
     6     3    25   ar
     7     3     4   ar
     8     4     5   ar
     9     4    29    1
    10     5     6   ar
    11     5    30    1
    12     6     7    1
    13     6    24   ar
    14     7     8    2
    15     7     9    2
    16     7    10   am
    17    10    11    1
    18    10    31    1
    19    11    12    1
    20    11    23    1
    21    11    13    1
    22    13    14    1
    23    13    32    1
    24    13    33    1
    25    14    15    1
    26    14    34    1
    27    14    35    1
    28    15    16    1
    29    16    23   ar
    30    16    17   ar
    31    17    18   ar
    32    17    36    1
    33    18    19   ar
    34    18    37    1
    35    19    20    1
    36    19    22   ar
    37    20    21    1
    38    21    38    1
    39    21    39    1
    40    21    40    1
    41    22    23   ar
    42    22    41    1
    43    24    25   ar
    44    24    42    1
    45    25    43    1
@<TRIPOS>SUBSTRUCTURE
     1 ZINC000274267583        1 TEMP              0 ****  ****    0 ROOT


##########                                Name:    ZINC001105793963
##########                DOCK_Rotatable_Bonds:                   9
##########                         Heavy_Atoms:                  24
##########                    Molecular_Weight:             337.422
##########                DOCK_Rotatable_Bonds:                   9
##########                       Formal_Charge:          -0.0100003
##########                     HBond_Acceptors:                   8
##########                        HBond_Donors:                   2
##########                         Heavy_Atoms:                  24
##########                          Grid_Score:          -33.494972
##########                     Grid_vdw_energy:          -31.444349
##########                      Grid_es_energy:           -2.050625
##########           Internal_energy_repulsive:            7.405059

@<TRIPOS>MOLECULE
ZINC001105793963
 51 52 1 0 0
SMALL
USER_CHARGES


@<TRIPOS>ATOM
      1 C1        -10.3526    3.2048   65.6315 C.3     1  ZINC001105793963   -0.1500
      2 C2        -10.2072    2.0129   66.5798 C.3     1  ZINC001105793963   -0.0300
      3 C3         -9.4885    0.8930   65.8726 C.2     1  ZINC001105793963    0.1800
      4 N4         -9.4527    0.6822   64.5789 N.2     1  ZINC001105793963   -0.4800
      5 C5         -8.7000   -0.4200   64.4124 C.2     1  ZINC001105793963    0.1700
      6 C6         -8.3560   -1.0751   63.0996 C.3     1  ZINC001105793963    0.1500
      7 N7         -9.4596   -0.8784   62.1501 N.3     1  ZINC001105793963   -0.6900
      8 C8         -9.1195   -1.4208   60.8279 C.3     1  ZINC001105793963    0.0700
      9 C9        -10.3269   -1.2909   59.8974 C.3     1  ZINC001105793963   -0.1000
     10 H10       -10.7168   -0.2733   59.9236 H       1  ZINC001105793963    0.1000
     11 C11       -11.4261   -2.2973   60.3006 C.3     1  ZINC001105793963    0.1100
     12 N12       -12.0049   -2.7535   59.0155 N.am    1  ZINC001105793963   -0.6200
     13 C13       -13.3007   -2.9904   58.7302 C.2     1  ZINC001105793963    0.5300
     14 O14       -14.1485   -2.8296   59.5823 O.2     1  ZINC001105793963   -0.5300
     15 C15       -13.6960   -3.4553   57.3522 C.3     1  ZINC001105793963    0.1300
     16 H16       -13.0871   -2.9430   56.6074 H       1  ZINC001105793963    0.1100
     17 C17       -13.4754   -4.9652   57.2405 C.3     1  ZINC001105793963   -0.1600
     18 N18       -15.1100   -3.1499   57.1208 N.am    1  ZINC001105793963   -0.7200
     19 C19       -15.4604   -1.9973   56.5166 C.2     1  ZINC001105793963    0.5200
     20 C20       -16.9150   -1.6823   56.2802 C.3     1  ZINC001105793963   -0.1700
     21 O21       -14.6051   -1.2135   56.1631 O.2     1  ZINC001105793963   -0.5500
     22 C22       -10.8364   -2.8901   58.1151 C.3     1  ZINC001105793963    0.1000
     23 C23        -9.9375   -1.6790   58.4559 C.3     1  ZINC001105793963   -0.1000
     24 H24        -8.8861   -1.9630   58.4112 H       1  ZINC001105793963    0.0900
     25 C25       -10.2164   -0.5222   57.4940 C.3     1  ZINC001105793963   -0.1500
     26 N26        -8.3235   -0.8158   65.5914 N.2     1  ZINC001105793963   -0.3700
     27 O27        -8.7610   -0.0718   66.4436 O.3     1  ZINC001105793963    0.0800
     28 H28        -9.3645    3.5455   65.3221 H       1  ZINC001105793963    0.0600
     29 H29       -10.9243    2.9031   64.7539 H       1  ZINC001105793963    0.0600
     30 H30       -10.8725    4.0148   66.1430 H       1  ZINC001105793963    0.0800
     31 H31        -9.6355    2.3146   67.4575 H       1  ZINC001105793963    0.1100
     32 H32       -11.1953    1.6722   66.8894 H       1  ZINC001105793963    0.1000
     33 H33        -7.4468   -0.6282   62.6977 H       1  ZINC001105793963    0.1000
     34 H34        -8.1976   -2.1422   63.2565 H       1  ZINC001105793963    0.0700
     35 H35       -10.3140   -1.2859   62.4992 H       1  ZINC001105793963    0.3500
     36 H36        -8.2790   -0.8650   60.4124 H       1  ZINC001105793963    0.0800
     37 H37        -8.8473   -2.4718   60.9254 H       1  ZINC001105793963    0.0400
     38 H38       -10.9916   -3.1380   60.8415 H       1  ZINC001105793963    0.0700
     39 H39       -12.1870   -1.8063   60.9072 H       1  ZINC001105793963    0.0900
     40 H40       -13.7613   -5.3014   56.2439 H       1  ZINC001105793963    0.0800
     41 H41       -12.4233   -5.1924   57.4128 H       1  ZINC001105793963    0.0800
     42 H42       -14.0843   -5.4774   57.9854 H       1  ZINC001105793963    0.0600
     43 H43       -15.7940   -3.7774   57.4024 H       1  ZINC001105793963    0.4100
     44 H44       -17.5300   -2.4973   56.6621 H       1  ZINC001105793963    0.0800
     45 H45       -17.1752   -0.7583   56.7963 H       1  ZINC001105793963    0.1000
     46 H46       -17.0920   -1.5639   55.2112 H       1  ZINC001105793963    0.1000
     47 H47       -10.3099   -3.8235   58.3147 H       1  ZINC001105793963    0.0800
     48 H48       -11.1525   -2.8464   57.0729 H       1  ZINC001105793963    0.0900
     49 H49       -11.2675   -0.2411   57.5590 H       1  ZINC001105793963    0.0600
     50 H50        -9.5946    0.3317   57.7627 H       1  ZINC001105793963    0.0600
     51 H51        -9.9859   -0.8334   56.4752 H       1  ZINC001105793963    0.0600
@<TRIPOS>BOND
     1     1     2    1
     2     1    28    1
     3     1    29    1
     4     1    30    1
     5     2     3    1
     6     2    31    1
     7     2    32    1
     8     3    27    1
     9     3     4    2
    10     4     5    1
    11     5     6    1
    12     5    26    2
    13     6     7    1
    14     6    33    1
    15     6    34    1
    16     7     8    1
    17     7    35    1
    18     8     9    1
    19     8    36    1
    20     8    37    1
    21     9    10    1
    22     9    23    1
    23     9    11    1
    24    11    12    1
    25    11    38    1
    26    11    39    1
    27    12    13   am
    28    12    22    1
    29    13    14    2
    30    13    15    1
    31    15    16    1
    32    15    17    1
    33    15    18    1
    34    17    40    1
    35    17    41    1
    36    17    42    1
    37    18    19   am
    38    18    43    1
    39    19    20    1
    40    19    21    2
    41    20    44    1
    42    20    45    1
    43    20    46    1
    44    22    23    1
    45    22    47    1
    46    22    48    1
    47    23    24    1
    48    23    25    1
    49    25    49    1
    50    25    50    1
    51    25    51    1
    52    26    27    1
@<TRIPOS>SUBSTRUCTURE
     1 ZINC001105793963        1 TEMP              0 ****  ****    0 ROOT


##########                                Name:    ZINC001291841503
##########                DOCK_Rotatable_Bonds:                   7
##########                         Heavy_Atoms:                  28
##########                    Molecular_Weight:             397.544
##########                DOCK_Rotatable_Bonds:                   7
##########                       Formal_Charge:         -0.00999964
##########                     HBond_Acceptors:                   7
##########                        HBond_Donors:                   0
##########                         Heavy_Atoms:                  28
##########                          Grid_Score:          -33.466927
##########                     Grid_vdw_energy:          -32.880917
##########                      Grid_es_energy:           -0.586008
##########           Internal_energy_repulsive:           14.288311

@<TRIPOS>MOLECULE
ZINC001291841503
 55 58 1 0 0
SMALL
USER_CHARGES


@<TRIPOS>ATOM
      1 C1         -9.5542   -3.1852   60.2510 C.3     1  ZINC001291841503   -0.1500
      2 C2        -10.0420   -3.5758   58.8544 C.3     1  ZINC001291841503   -0.1100
      3 C3        -10.8115   -2.4063   58.2373 C.3     1  ZINC001291841503    0.0500
      4 H4        -10.3075   -1.4709   58.4807 H       1  ZINC001291841503    0.0900
      5 C5        -10.8644   -2.5737   56.7406 C.2     1  ZINC001291841503    0.2000
      6 N6        -10.6305   -3.6706   56.0775 N.2     1  ZINC001291841503   -0.2700
      7 N7        -10.7635   -3.4603   54.8166 N.2     1  ZINC001291841503   -0.3100
      8 C8        -11.0922   -2.2076   54.6058 C.2     1  ZINC001291841503    0.3600
      9 N9        -11.3204   -1.6115   53.3756 N.3     1  ZINC001291841503   -0.4500
     10 C10       -10.0763   -1.5095   52.6012 C.3     1  ZINC001291841503    0.0200
     11 C11       -12.3516   -2.3372   52.6222 C.3     1  ZINC001291841503    0.0700
     12 H12       -11.9898   -3.3203   52.3210 H       1  ZINC001291841503    0.0800
     13 C13       -13.6588   -2.4597   53.4517 C.3     1  ZINC001291841503   -0.1400
     14 C14       -14.7167   -2.5446   52.3228 C.3     1  ZINC001291841503    0.0500
     15 O15       -14.2365   -1.6670   51.2919 O.3     1  ZINC001291841503   -0.3800
     16 C16       -12.8117   -1.5214   51.3949 C.3     1  ZINC001291841503    0.0600
     17 N17       -11.1726   -1.6041   55.8270 N.pl3   1  ZINC001291841503   -0.4700
     18 C18       -11.5097   -0.2051   56.1017 C.3     1  ZINC001291841503    0.1900
     19 C19       -10.2514    0.5628   56.4146 C.2     1  ZINC001291841503   -0.2700
     20 C20        -9.8137    0.8919   57.6337 C.2     1  ZINC001291841503    0.0800
     21 N21        -8.6822    1.5674   57.6442 N.2     1  ZINC001291841503   -0.4800
     22 C22        -8.1411    1.8264   56.5019 C.2     1  ZINC001291841503    0.0500
     23 C23        -6.8527    2.5842   56.3097 C.3     1  ZINC001291841503   -0.0800
     24 S24        -9.0934    1.1789   55.2381 S.3     1  ZINC001291841503    0.1800
     25 C25       -12.2133   -2.3800   58.7897 C.ar    1  ZINC001291841503   -0.0900
     26 C26       -12.5871   -1.3905   59.6796 C.ar    1  ZINC001291841503   -0.0900
     27 C27       -13.8730   -1.3663   60.1863 C.ar    1  ZINC001291841503   -0.1200
     28 C28       -14.7853   -2.3314   59.8027 C.ar    1  ZINC001291841503   -0.1200
     29 C29       -14.4118   -3.3205   58.9122 C.ar    1  ZINC001291841503   -0.1200
     30 C30       -13.1271   -3.3421   58.4021 C.ar    1  ZINC001291841503   -0.1100
     31 H31        -8.8987   -2.3174   60.1774 H       1  ZINC001291841503    0.0500
     32 H32       -10.4104   -2.9414   60.8799 H       1  ZINC001291841503    0.0500
     33 H33        -9.0059   -4.0184   60.6906 H       1  ZINC001291841503    0.0600
     34 H34        -9.1858   -3.8195   58.2255 H       1  ZINC001291841503    0.0800
     35 H35       -10.6974   -4.4436   58.9281 H       1  ZINC001291841503    0.0800
     36 H36        -9.7180   -2.5094   52.3559 H       1  ZINC001291841503    0.0500
     37 H37       -10.2650   -0.9555   51.6817 H       1  ZINC001291841503    0.0900
     38 H38        -9.3225   -0.9883   53.1913 H       1  ZINC001291841503    0.0700
     39 H39       -13.6566   -3.3661   54.0570 H       1  ZINC001291841503    0.0900
     40 H40       -13.8153   -1.5764   54.0710 H       1  ZINC001291841503    0.0800
     41 H41       -14.7883   -3.5655   51.9475 H       1  ZINC001291841503    0.0700
     42 H42       -15.6866   -2.2056   52.6867 H       1  ZINC001291841503    0.0900
     43 H43       -12.5566   -0.4710   51.5358 H       1  ZINC001291841503    0.0800
     44 H44       -12.3348   -1.9010   50.4913 H       1  ZINC001291841503    0.0700
     45 H45       -11.9933    0.2306   55.2274 H       1  ZINC001291841503    0.1100
     46 H46       -12.1871   -0.1553   56.9542 H       1  ZINC001291841503    0.1100
     47 H47       -10.3438    0.6260   58.5362 H       1  ZINC001291841503    0.1700
     48 H48        -6.0162    1.8853   56.3130 H       1  ZINC001291841503    0.0900
     49 H49        -6.8807    3.1129   55.3570 H       1  ZINC001291841503    0.0800
     50 H50        -6.7292    3.3024   57.1203 H       1  ZINC001291841503    0.0900
     51 H51       -11.8744   -0.6364   59.9792 H       1  ZINC001291841503    0.1300
     52 H52       -14.1648   -0.5935   60.8821 H       1  ZINC001291841503    0.1200
     53 H53       -15.7897   -2.3130   60.1992 H       1  ZINC001291841503    0.1200
     54 H54       -15.1245   -4.0747   58.6127 H       1  ZINC001291841503    0.1200
     55 H55       -12.8354   -4.1148   57.7062 H       1  ZINC001291841503    0.1200
@<TRIPOS>BOND
     1     1     2    1
     2     1    31    1
     3     1    32    1
     4     1    33    1
     5     2     3    1
     6     2    34    1
     7     2    35    1
     8     3     4    1
     9     3     5    1
    10     3    25    1
    11     5    17    1
    12     5     6    2
    13     6     7    1
    14     7     8    2
    15     8     9    1
    16     8    17    1
    17     9    10    1
    18     9    11    1
    19    10    36    1
    20    10    37    1
    21    10    38    1
    22    11    12    1
    23    11    16    1
    24    11    13    1
    25    13    14    1
    26    13    39    1
    27    13    40    1
    28    14    15    1
    29    14    41    1
    30    14    42    1
    31    15    16    1
    32    16    43    1
    33    16    44    1
    34    17    18    1
    35    18    19    1
    36    18    45    1
    37    18    46    1
    38    19    24    1
    39    19    20    2
    40    20    21    1
    41    20    47    1
    42    21    22    2
    43    22    23    1
    44    22    24    1
    45    23    48    1
    46    23    49    1
    47    23    50    1
    48    25    30   ar
    49    25    26   ar
    50    26    27   ar
    51    26    51    1
    52    27    28   ar
    53    27    52    1
    54    28    29   ar
    55    28    53    1
    56    29    30   ar
    57    29    54    1
    58    30    55    1
@<TRIPOS>SUBSTRUCTURE
     1 ZINC001291841503        1 TEMP              0 ****  ****    0 ROOT


##########                                Name:    ZINC000558213406
##########                DOCK_Rotatable_Bonds:                   8
##########                         Heavy_Atoms:                  30
##########                    Molecular_Weight:               408.5
##########                DOCK_Rotatable_Bonds:                   8
##########                       Formal_Charge:          -0.0299987
##########                     HBond_Acceptors:                   7
##########                        HBond_Donors:                   2
##########                         Heavy_Atoms:                  30
##########                          Grid_Score:          -33.428402
##########                     Grid_vdw_energy:          -31.998865
##########                      Grid_es_energy:           -1.429536
##########           Internal_energy_repulsive:           12.270213

@<TRIPOS>MOLECULE
ZINC000558213406
 58 61 1 0 0
SMALL
USER_CHARGES


@<TRIPOS>ATOM
      1 O1        -12.6752   -1.4999   56.6501 O.2     1  ZINC000558213406   -0.5700
      2 C2        -12.4113   -2.6721   56.4639 C.2     1  ZINC000558213406    0.7100
      3 N3        -12.5083   -3.5542   57.4782 N.am    1  ZINC000558213406   -0.6800
      4 C4        -12.9078   -3.1193   58.7491 C.ar    1  ZINC000558213406    0.1700
      5 C5        -11.9811   -2.5472   59.6104 C.ar    1  ZINC000558213406   -0.1300
      6 C6        -12.3754   -2.1183   60.8623 C.ar    1  ZINC000558213406   -0.1100
      7 C7        -13.6971   -2.2595   61.2599 C.ar    1  ZINC000558213406    0.0600
      8 O8        -14.0847   -1.8375   62.4928 O.3     1  ZINC000558213406   -0.2500
      9 C9        -14.4463   -0.5356   62.6370 C.ar    1  ZINC000558213406    0.0700
     10 C10       -14.7274   -0.0167   63.8970 C.ar    1  ZINC000558213406   -0.1500
     11 C11       -15.0920    1.3166   63.9936 C.ar    1  ZINC000558213406   -0.1300
     12 C12       -15.1638    2.0816   62.8447 C.ar    1  ZINC000558213406    0.0600
     13 N13       -14.8912    1.5589   61.6649 N.ar    1  ZINC000558213406   -0.4500
     14 C14       -14.5349    0.2971   61.5303 C.ar    1  ZINC000558213406    0.0800
     15 C15       -14.6236   -2.8307   60.3994 C.ar    1  ZINC000558213406   -0.1000
     16 C16       -14.2315   -3.2551   59.1453 C.ar    1  ZINC000558213406   -0.1100
     17 N17       -12.0271   -3.0904   55.2416 N.am    1  ZINC000558213406   -0.7300
     18 C18       -11.9216   -2.1315   54.1389 C.3     1  ZINC000558213406    0.1500
     19 H19       -11.2969   -1.2851   54.4242 H       1  ZINC000558213406    0.1100
     20 C20       -11.3652   -2.8197   52.8645 C.3     1  ZINC000558213406   -0.1400
     21 C21       -11.9564   -1.9264   51.7454 C.3     1  ZINC000558213406    0.1000
     22 N22       -13.3014   -1.5604   52.2257 N.am    1  ZINC000558213406   -0.6200
     23 C23       -14.3413   -1.1984   51.4486 C.2     1  ZINC000558213406    0.5400
     24 O24       -15.4071   -0.9171   51.9543 O.2     1  ZINC000558213406   -0.5300
     25 C25       -14.1797   -1.1432   49.9512 C.3     1  ZINC000558213406   -0.1000
     26 C26       -15.5000   -1.5289   49.2813 C.3     1  ZINC000558213406   -0.1100
     27 C27       -15.3359   -1.4728   47.7611 C.3     1  ZINC000558213406   -0.1200
     28 C28       -14.9469   -0.0537   47.3421 C.3     1  ZINC000558213406   -0.1200
     29 C29       -13.6265    0.3319   48.0122 C.3     1  ZINC000558213406   -0.1200
     30 C30       -13.7906    0.2758   49.5323 C.3     1  ZINC000558213406   -0.1100
     31 C31       -13.3203   -1.6531   53.6958 C.3     1  ZINC000558213406    0.1000
     32 H32       -12.3017   -4.4900   57.3286 H       1  ZINC000558213406    0.4100
     33 H33       -10.9521   -2.4379   59.3013 H       1  ZINC000558213406    0.1300
     34 H34       -11.6545   -1.6733   61.5323 H       1  ZINC000558213406    0.1400
     35 H35       -14.6634   -0.6380   64.7780 H       1  ZINC000558213406    0.1400
     36 H36       -15.3176    1.7530   64.9554 H       1  ZINC000558213406    0.1400
     37 H37       -15.4474    3.1215   62.9139 H       1  ZINC000558213406    0.1600
     38 H38       -14.3191   -0.0955   60.5476 H       1  ZINC000558213406    0.1700
     39 H39       -15.6524   -2.9403   60.7094 H       1  ZINC000558213406    0.1400
     40 H40       -14.9529   -3.6994   58.4755 H       1  ZINC000558213406    0.1500
     41 H41       -11.8204   -4.0262   55.0920 H       1  ZINC000558213406    0.4000
     42 H42       -10.2756   -2.7936   52.8505 H       1  ZINC000558213406    0.0900
     43 H43       -11.7311   -3.8430   52.7817 H       1  ZINC000558213406    0.0800
     44 H44       -11.3459   -1.0336   51.6105 H       1  ZINC000558213406    0.0700
     45 H45       -12.0258   -2.4842   50.8117 H       1  ZINC000558213406    0.0800
     46 H46       -13.3994   -1.8396   49.6442 H       1  ZINC000558213406    0.0900
     47 H47       -15.7773   -2.5400   49.5798 H       1  ZINC000558213406    0.0600
     48 H48       -16.2803   -0.8326   49.5885 H       1  ZINC000558213406    0.0700
     49 H49       -14.5557   -2.1693   47.4540 H       1  ZINC000558213406    0.0600
     50 H50       -16.2766   -1.7476   47.2838 H       1  ZINC000558213406    0.0700
     51 H51       -14.8300   -0.0139   46.2592 H       1  ZINC000558213406    0.0600
     52 H52       -15.7272    0.6426   47.6493 H       1  ZINC000558213406    0.0600
     53 H53       -12.8462   -0.3644   47.7050 H       1  ZINC000558213406    0.0600
     54 H54       -13.3494    1.3429   47.7136 H       1  ZINC000558213406    0.0700
     55 H55       -14.5708    0.9723   49.8395 H       1  ZINC000558213406    0.0800
     56 H56       -12.8500    0.5506   50.0096 H       1  ZINC000558213406    0.0600
     57 H57       -14.0738   -2.3743   54.0121 H       1  ZINC000558213406    0.0800
     58 H58       -13.5365   -0.6752   54.1262 H       1  ZINC000558213406    0.0800
@<TRIPOS>BOND
     1     1     2    2
     2     2     3   am
     3     2    17   am
     4     3     4    1
     5     3    32    1
     6     4    16   ar
     7     4     5   ar
     8     5     6   ar
     9     5    33    1
    10     6     7   ar
    11     6    34    1
    12     7     8    1
    13     7    15   ar
    14     8     9    1
    15     9    14   ar
    16     9    10   ar
    17    10    11   ar
    18    10    35    1
    19    11    12   ar
    20    11    36    1
    21    12    13   ar
    22    12    37    1
    23    13    14   ar
    24    14    38    1
    25    15    16   ar
    26    15    39    1
    27    16    40    1
    28    17    18    1
    29    17    41    1
    30    18    19    1
    31    18    31    1
    32    18    20    1
    33    20    21    1
    34    20    42    1
    35    20    43    1
    36    21    22    1
    37    21    44    1
    38    21    45    1
    39    22    23   am
    40    22    31    1
    41    23    24    2
    42    23    25    1
    43    25    30    1
    44    25    26    1
    45    25    46    1
    46    26    27    1
    47    26    47    1
    48    26    48    1
    49    27    28    1
    50    27    49    1
    51    27    50    1
    52    28    29    1
    53    28    51    1
    54    28    52    1
    55    29    30    1
    56    29    53    1
    57    29    54    1
    58    30    55    1
    59    30    56    1
    60    31    57    1
    61    31    58    1
@<TRIPOS>SUBSTRUCTURE
     1 ZINC000558213406        1 TEMP              0 ****  ****    0 ROOT


##########                                Name:    ZINC000851838607
##########                DOCK_Rotatable_Bonds:                  12
##########                         Heavy_Atoms:                  23
##########                    Molecular_Weight:             352.495
##########                DOCK_Rotatable_Bonds:                  12
##########                       Formal_Charge:          0.00999896
##########                     HBond_Acceptors:                   8
##########                        HBond_Donors:                   2
##########                         Heavy_Atoms:                  23
##########                          Grid_Score:          -33.427521
##########                     Grid_vdw_energy:          -32.913742
##########                      Grid_es_energy:           -0.513780
##########           Internal_energy_repulsive:           23.275154

@<TRIPOS>MOLECULE
ZINC000851838607
 55 54 1 0 0
SMALL
USER_CHARGES


@<TRIPOS>ATOM
      1 C1         -8.1902    0.0447   52.6638 C.3     1  ZINC000851838607    0.0300
      2 O2         -9.3716   -0.6525   53.0640 O.3     1  ZINC000851838607   -0.3800
      3 C3        -10.5831    0.0592   52.8032 C.3     1  ZINC000851838607    0.0800
      4 C4        -11.7752   -0.7689   53.2868 C.3     1  ZINC000851838607   -0.6000
      5 H5        -11.6725   -0.9648   54.3541 H       1  ZINC000851838607    0.1400
      6 C6        -13.0704    0.0051   53.0328 C.3     1  ZINC000851838607   -0.1400
      7 S7        -11.8242   -2.3422   52.3852 S.o2    1  ZINC000851838607    2.6200
      8 O8        -12.3797   -2.1577   51.0904 O.2     1  ZINC000851838607   -0.9400
      9 O9        -10.6105   -3.0586   52.5664 O.2     1  ZINC000851838607   -0.9500
     10 N10       -12.9554   -3.2448   53.1903 N.am    1  ZINC000851838607   -1.1200
     11 C11       -12.7639   -3.5651   54.6069 C.3     1  ZINC000851838607    0.1100
     12 C12       -13.7913   -2.8022   55.4456 C.3     1  ZINC000851838607   -0.1400
     13 C13       -13.5509   -3.0870   56.9295 C.3     1  ZINC000851838607    0.1700
     14 H14       -13.3200   -4.1437   57.0639 H       1  ZINC000851838607    0.1000
     15 N15       -12.4272   -2.2771   57.4064 N.am    1  ZINC000851838607   -0.7100
     16 C16       -11.2231   -2.8478   57.6084 C.2     1  ZINC000851838607    0.6500
     17 O17       -11.0699   -4.0346   57.3965 O.2     1  ZINC000851838607   -0.5600
     18 O18       -10.1899   -2.1032   58.0451 O.3     1  ZINC000851838607   -0.3700
     19 C19        -9.8092   -2.2564   59.4379 C.3     1  ZINC000851838607    0.1400
     20 C20       -11.0612   -2.2161   60.3164 C.3     1  ZINC000851838607   -0.1800
     21 C21        -9.0962   -3.5968   59.6273 C.3     1  ZINC000851838607   -0.1400
     22 C22        -8.8688   -1.1176   59.8379 C.3     1  ZINC000851838607   -0.1800
     23 C23       -14.8083   -2.7343   57.7267 C.3     1  ZINC000851838607   -0.1100
     24 C24       -14.8058   -3.5031   59.0495 C.3     1  ZINC000851838607   -0.1500
     25 C25       -14.8272   -1.2309   58.0105 C.3     1  ZINC000851838607   -0.1400
     26 H26        -8.2266    0.2357   51.5912 H       1  ZINC000851838607    0.0400
     27 H27        -8.1284    0.9921   53.1995 H       1  ZINC000851838607    0.0500
     28 H28        -7.3144   -0.5615   52.8954 H       1  ZINC000851838607    0.0900
     29 H29       -10.5650    1.0127   53.3311 H       1  ZINC000851838607    0.0700
     30 H30       -10.6758    0.2385   51.7321 H       1  ZINC000851838607    0.0600
     31 H31       -13.9244   -0.6205   53.2929 H       1  ZINC000851838607    0.0700
     32 H32       -13.0807    0.9068   53.6449 H       1  ZINC000851838607    0.0900
     33 H33       -13.1287    0.2800   51.9797 H       1  ZINC000851838607    0.0700
     34 H34       -13.7448   -3.5613   52.7238 H       1  ZINC000851838607    0.4200
     35 H35       -12.8949   -4.6365   54.7581 H       1  ZINC000851838607    0.0700
     36 H36       -11.7585   -3.2754   54.9123 H       1  ZINC000851838607    0.0800
     37 H37       -13.6900   -1.7330   55.2598 H       1  ZINC000851838607    0.0800
     38 H38       -14.7957   -3.1250   55.1717 H       1  ZINC000851838607    0.1000
     39 H39       -12.5497   -1.3301   57.5767 H       1  ZINC000851838607    0.4100
     40 H40       -11.7312   -3.0274   60.0315 H       1  ZINC000851838607    0.0600
     41 H41       -10.7754   -2.3311   61.3619 H       1  ZINC000851838607    0.0700
     42 H42       -11.5692   -1.2612   60.1815 H       1  ZINC000851838607    0.0900
     43 H43        -8.2042   -3.6255   59.0015 H       1  ZINC000851838607    0.0700
     44 H44        -8.8104   -3.7118   60.6729 H       1  ZINC000851838607    0.0800
     45 H45        -9.7661   -4.4081   59.3425 H       1  ZINC000851838607    0.0700
     46 H46        -9.3767   -0.1626   59.7030 H       1  ZINC000851838607    0.0900
     47 H47        -8.5830   -1.2326   60.8834 H       1  ZINC000851838607    0.0700
     48 H48        -7.9768   -1.1463   59.2120 H       1  ZINC000851838607    0.0600
     49 H49       -15.6923   -3.0063   57.1500 H       1  ZINC000851838607    0.0700
     50 H50       -13.9217   -3.2311   59.6262 H       1  ZINC000851838607    0.0600
     51 H51       -15.7015   -3.2517   59.6175 H       1  ZINC000851838607    0.0600
     52 H52       -14.7923   -4.5740   58.8474 H       1  ZINC000851838607    0.0600
     53 H53       -14.8289   -0.6833   57.0682 H       1  ZINC000851838607    0.0500
     54 H54       -15.7228   -0.9797   58.5785 H       1  ZINC000851838607    0.0500
     55 H55       -13.9431   -0.9589   58.5872 H       1  ZINC000851838607    0.0700
@<TRIPOS>BOND
     1     1     2    1
     2     1    26    1
     3     1    27    1
     4     1    28    1
     5     2     3    1
     6     3     4    1
     7     3    29    1
     8     3    30    1
     9     4     5    1
    10     4     6    1
    11     4     7    1
    12     6    31    1
    13     6    32    1
    14     6    33    1
    15     7     8    2
    16     7     9    2
    17     7    10   am
    18    10    11    1
    19    10    34    1
    20    11    12    1
    21    11    35    1
    22    11    36    1
    23    12    13    1
    24    12    37    1
    25    12    38    1
    26    13    14    1
    27    13    15    1
    28    13    23    1
    29    15    16   am
    30    15    39    1
    31    16    17    2
    32    16    18    1
    33    18    19    1
    34    19    20    1
    35    19    21    1
    36    19    22    1
    37    20    40    1
    38    20    41    1
    39    20    42    1
    40    21    43    1
    41    21    44    1
    42    21    45    1
    43    22    46    1
    44    22    47    1
    45    22    48    1
    46    23    24    1
    47    23    25    1
    48    23    49    1
    49    24    50    1
    50    24    51    1
    51    24    52    1
    52    25    53    1
    53    25    54    1
    54    25    55    1
@<TRIPOS>SUBSTRUCTURE
     1 ZINC000851838607        1 TEMP              0 ****  ****    0 ROOT


##########                                Name:    ZINC001058079801
##########                DOCK_Rotatable_Bonds:                   7
##########                         Heavy_Atoms:                  24
##########                    Molecular_Weight:             349.457
##########                DOCK_Rotatable_Bonds:                   7
##########                       Formal_Charge:           0.0200001
##########                     HBond_Acceptors:                   8
##########                        HBond_Donors:                   0
##########                         Heavy_Atoms:                  24
##########                          Grid_Score:          -33.412289
##########                     Grid_vdw_energy:          -30.802382
##########                      Grid_es_energy:           -2.609907
##########           Internal_energy_repulsive:           27.318661

@<TRIPOS>MOLECULE
ZINC001058079801
 47 49 1 0 0
SMALL
USER_CHARGES


@<TRIPOS>ATOM
      1 C1        -12.5188   -4.2405   54.1810 C.3     1  ZINC001058079801   -0.1500
      2 C2        -13.2751   -3.9311   55.4746 C.3     1  ZINC001058079801   -0.1200
      3 C3        -12.9575   -5.0026   56.5195 C.3     1  ZINC001058079801   -0.0300
      4 C4        -11.7924   -4.5522   57.3627 C.2     1  ZINC001058079801    0.2900
      5 N5        -10.6447   -5.1626   57.3030 N.2     1  ZINC001058079801   -0.4800
      6 S6         -9.6303   -4.3464   58.3953 S.3     1  ZINC001058079801    0.1900
      7 C7        -10.8329   -3.2106   58.8773 C.2     1  ZINC001058079801    0.2700
      8 N8        -10.7024   -2.1846   59.7957 N.3     1  ZINC001058079801   -0.4300
      9 C9        -12.0062   -1.8168   60.3627 C.3     1  ZINC001058079801    0.0700
     10 C10       -11.8073   -0.7851   61.4754 C.3     1  ZINC001058079801   -0.1300
     11 C11       -11.1129    0.4521   60.8992 C.3     1  ZINC001058079801    0.1300
     12 N12       -10.8674    1.4196   61.9716 N.am    1  ZINC001058079801   -0.6100
     13 C13       -11.4524    2.7605   61.8966 C.3     1  ZINC001058079801    0.0700
     14 C14       -10.1034    1.0758   63.0274 C.2     1  ZINC001058079801    0.5200
     15 O15        -9.6203   -0.0349   63.0903 O.2     1  ZINC001058079801   -0.5300
     16 C16        -9.8494    2.0714   64.1297 C.3     1  ZINC001058079801   -0.0600
     17 C17        -8.9605    1.4480   65.1748 C.2     1  ZINC001058079801   -0.1900
     18 C18        -7.6859    1.0120   65.0332 C.2     1  ZINC001058079801   -0.0400
     19 O19        -7.3115    0.5390   66.2302 O.3     1  ZINC001058079801    0.1000
     20 N20        -8.1979    0.6425   67.0462 N.2     1  ZINC001058079801   -0.3600
     21 C21        -9.2617    1.1885   66.5316 C.2     1  ZINC001058079801    0.0000
     22 C22        -9.7800    0.0341   60.2721 C.3     1  ZINC001058079801   -0.1200
     23 C23       -10.0378   -1.0215   59.1944 C.3     1  ZINC001058079801    0.0400
     24 N24       -11.9014   -3.5281   58.1770 N.2     1  ZINC001058079801   -0.5300
     25 H25       -12.7451   -3.4772   53.4364 H       1  ZINC001058079801    0.0600
     26 H26       -11.4472   -4.2480   54.3796 H       1  ZINC001058079801    0.0600
     27 H27       -12.8256   -5.2166   53.8053 H       1  ZINC001058079801    0.0600
     28 H28       -12.9683   -2.9550   55.8502 H       1  ZINC001058079801    0.0700
     29 H29       -14.3468   -3.9237   55.2759 H       1  ZINC001058079801    0.0700
     30 H30       -13.8282   -5.1585   57.1565 H       1  ZINC001058079801    0.1000
     31 H31       -12.7030   -5.9359   56.0172 H       1  ZINC001058079801    0.0900
     32 H32       -12.6352   -1.3913   59.5809 H       1  ZINC001058079801    0.0600
     33 H33       -12.4874   -2.7048   60.7726 H       1  ZINC001058079801    0.1000
     34 H34       -12.7763   -0.5006   61.8854 H       1  ZINC001058079801    0.0800
     35 H35       -11.1897   -1.2147   62.2640 H       1  ZINC001058079801    0.0800
     36 H36       -11.7484    0.9052   60.1383 H       1  ZINC001058079801    0.1000
     37 H37       -12.4328    2.7565   62.3728 H       1  ZINC001058079801    0.0600
     38 H38       -10.8025    3.4697   62.4091 H       1  ZINC001058079801    0.0800
     39 H39       -11.5573    3.0533   60.8519 H       1  ZINC001058079801    0.0800
     40 H40        -9.3609    2.9540   63.7167 H       1  ZINC001058079801    0.1100
     41 H41       -10.7972    2.3601   64.5841 H       1  ZINC001058079801    0.1100
     42 H42        -7.0892    1.0399   64.1335 H       1  ZINC001058079801    0.2200
     43 H43       -10.1923    1.3959   67.0389 H       1  ZINC001058079801    0.1900
     44 H44        -9.3008    0.9037   59.8225 H       1  ZINC001058079801    0.0900
     45 H45        -9.1306   -0.3828   61.0419 H       1  ZINC001058079801    0.0800
     46 H46        -9.0892   -1.3317   58.7558 H       1  ZINC001058079801    0.1000
     47 H47       -10.6760   -0.5995   58.4181 H       1  ZINC001058079801    0.0700
@<TRIPOS>BOND
     1     1     2    1
     2     1    25    1
     3     1    26    1
     4     1    27    1
     5     2     3    1
     6     2    28    1
     7     2    29    1
     8     3     4    1
     9     3    30    1
    10     3    31    1
    11     4    24    1
    12     4     5    2
    13     5     6    1
    14     6     7    1
    15     7     8    1
    16     7    24    2
    17     8    23    1
    18     8     9    1
    19     9    10    1
    20     9    32    1
    21     9    33    1
    22    10    11    1
    23    10    34    1
    24    10    35    1
    25    11    12    1
    26    11    22    1
    27    11    36    1
    28    12    13    1
    29    12    14   am
    30    13    37    1
    31    13    38    1
    32    13    39    1
    33    14    15    2
    34    14    16    1
    35    16    17    1
    36    16    40    1
    37    16    41    1
    38    17    21    1
    39    17    18    2
    40    18    19    1
    41    18    42    1
    42    19    20    1
    43    20    21    2
    44    21    43    1
    45    22    23    1
    46    22    44    1
    47    22    45    1
    48    23    46    1
    49    23    47    1
@<TRIPOS>SUBSTRUCTURE
     1 ZINC001058079801        1 TEMP              0 ****  ****    0 ROOT


##########                                Name:    ZINC001707162141
##########                DOCK_Rotatable_Bonds:                   9
##########                         Heavy_Atoms:                  25
##########                    Molecular_Weight:               344.5
##########                DOCK_Rotatable_Bonds:                   9
##########                       Formal_Charge:          -0.0299999
##########                     HBond_Acceptors:                   5
##########                        HBond_Donors:                   1
##########                         Heavy_Atoms:                  25
##########                          Grid_Score:          -33.411667
##########                     Grid_vdw_energy:          -32.546673
##########                      Grid_es_energy:           -0.864996
##########           Internal_energy_repulsive:           83.737251

@<TRIPOS>MOLECULE
ZINC001707162141
 57 59 1 0 0
SMALL
USER_CHARGES


@<TRIPOS>ATOM
      1 C1        -16.1043   -1.8028   58.9390 C.3     1  ZINC001707162141   -0.1800
      2 C2        -14.6296   -2.1895   58.8105 C.3     1  ZINC001707162141    0.1700
      3 H3        -14.0448   -1.3085   58.5457 H       1  ZINC001707162141    0.1000
      4 N4        -14.1512   -2.7282   60.0907 N.3     1  ZINC001707162141   -0.6400
      5 C5        -13.3793   -1.7206   60.8303 C.3     1  ZINC001707162141    0.0700
      6 C6        -12.0322   -1.5016   60.1389 C.3     1  ZINC001707162141    0.1500
      7 H7        -12.1909   -1.0243   59.1720 H       1  ZINC001707162141    0.0700
      8 C8        -11.3316   -2.8495   59.9406 C.3     1  ZINC001707162141   -0.1200
      9 C9         -9.9287   -2.6127   59.3770 C.3     1  ZINC001707162141   -0.0900
     10 H10       -10.0032   -2.0753   58.4316 H       1  ZINC001707162141    0.0700
     11 C11        -9.2386   -3.9585   59.1452 C.3     1  ZINC001707162141   -0.1500
     12 C12        -9.1108   -1.7850   60.3709 C.3     1  ZINC001707162141   -0.1300
     13 C13        -9.7861   -0.4250   60.5741 C.3     1  ZINC001707162141    0.1100
     14 N14       -11.1817   -0.6455   60.9770 N.am    1  ZINC001707162141   -0.6100
     15 C15       -11.6723   -0.0737   62.0946 C.2     1  ZINC001707162141    0.5100
     16 O16       -12.8261   -0.2634   62.4164 O.2     1  ZINC001707162141   -0.4800
     17 C17       -10.7872    0.8015   62.9441 C.3     1  ZINC001707162141   -0.1400
     18 C18       -11.6081    1.3983   64.0890 C.3     1  ZINC001707162141   -0.0900
     19 C19       -10.8211    2.5369   64.7412 C.3     1  ZINC001707162141   -0.0900
     20 C20        -9.8521    1.9602   65.7753 C.3     1  ZINC001707162141   -0.1500
     21 C21        -8.5204    2.6860   65.9775 C.3     1  ZINC001707162141   -0.1800
     22 C22        -8.5546    1.3367   65.2570 C.3     1  ZINC001707162141   -0.1800
     23 C23       -14.4764   -3.2356   57.7366 C.ar    1  ZINC001707162141    0.3500
     24 N24       -14.3232   -2.8522   56.4850 N.ar    1  ZINC001707162141   -0.5000
     25 C25       -14.1801   -3.7421   55.5161 C.ar    1  ZINC001707162141    0.1500
     26 C26       -14.2045   -5.0916   55.8312 C.ar    1  ZINC001707162141   -0.2400
     27 C27       -14.3732   -5.4558   57.1578 C.ar    1  ZINC001707162141    0.1500
     28 N28       -14.5045   -4.5094   58.0733 N.ar    1  ZINC001707162141   -0.5200
     29 H29       -16.2152   -1.0462   59.7158 H       1  ZINC001707162141    0.0600
     30 H30       -16.4593   -1.4032   57.9892 H       1  ZINC001707162141    0.0600
     31 H31       -16.6891   -2.6837   59.2038 H       1  ZINC001707162141    0.0600
     32 H32       -14.9185   -3.0753   60.6463 H       1  ZINC001707162141    0.3300
     33 H33       -13.9334   -0.7822   60.8518 H       1  ZINC001707162141    0.1000
     34 H34       -13.2122   -2.0674   61.8500 H       1  ZINC001707162141    0.0200
     35 H35       -11.2569   -3.3650   60.8981 H       1  ZINC001707162141    0.0700
     36 H36       -11.9060   -3.4588   59.2428 H       1  ZINC001707162141    0.0700
     37 H37        -9.1635   -4.4959   60.0905 H       1  ZINC001707162141    0.0500
     38 H38        -9.8210   -4.5482   58.4372 H       1  ZINC001707162141    0.0600
     39 H39        -8.2398   -3.7900   58.7426 H       1  ZINC001707162141    0.0600
     40 H40        -8.1044   -1.6366   59.9794 H       1  ZINC001707162141    0.0700
     41 H41        -9.0569   -2.3105   61.3244 H       1  ZINC001707162141    0.0700
     42 H42        -9.7596    0.1390   59.6418 H       1  ZINC001707162141    0.0600
     43 H43        -9.2639    0.1294   61.3539 H       1  ZINC001707162141    0.0800
     44 H44        -9.9722    0.2050   63.3539 H       1  ZINC001707162141    0.0800
     45 H45       -10.3774    1.6057   62.3331 H       1  ZINC001707162141    0.0800
     46 H46       -12.5496    1.7846   63.6984 H       1  ZINC001707162141    0.0700
     47 H47       -11.8120    0.6262   64.8309 H       1  ZINC001707162141    0.0700
     48 H48       -10.2595    3.0746   63.9773 H       1  ZINC001707162141    0.0600
     49 H49       -11.5124    3.2212   65.2331 H       1  ZINC001707162141    0.0600
     50 H50       -10.3151    1.5041   66.6504 H       1  ZINC001707162141    0.1000
     51 H51        -8.3348    3.5744   65.3739 H       1  ZINC001707162141    0.0900
     52 H52        -8.1072    2.7077   66.9860 H       1  ZINC001707162141    0.0900
     53 H53        -8.1638    0.4708   65.7913 H       1  ZINC001707162141    0.0900
     54 H54        -8.3913    1.3375   64.1793 H       1  ZINC001707162141    0.0900
     55 H55       -14.0508   -3.4214   54.4930 H       1  ZINC001707162141    0.1600
     56 H56       -14.0943   -5.8413   55.0616 H       1  ZINC001707162141    0.1400
     57 H57       -14.3975   -6.4980   57.4403 H       1  ZINC001707162141    0.1600
@<TRIPOS>BOND
     1     1     2    1
     2     1    29    1
     3     1    30    1
     4     1    31    1
     5     2     3    1
     6     2     4    1
     7     2    23    1
     8     4     5    1
     9     4    32    1
    10     5     6    1
    11     5    33    1
    12     5    34    1
    13     6     7    1
    14     6    14    1
    15     6     8    1
    16     8     9    1
    17     8    35    1
    18     8    36    1
    19     9    10    1
    20     9    11    1
    21     9    12    1
    22    11    37    1
    23    11    38    1
    24    11    39    1
    25    12    13    1
    26    12    40    1
    27    12    41    1
    28    13    14    1
    29    13    42    1
    30    13    43    1
    31    14    15   am
    32    15    16    2
    33    15    17    1
    34    17    18    1
    35    17    44    1
    36    17    45    1
    37    18    19    1
    38    18    46    1
    39    18    47    1
    40    19    20    1
    41    19    48    1
    42    19    49    1
    43    20    22    1
    44    20    21    1
    45    20    50    1
    46    21    22    1
    47    21    51    1
    48    21    52    1
    49    22    53    1
    50    22    54    1
    51    23    28   ar
    52    23    24   ar
    53    24    25   ar
    54    25    26   ar
    55    25    55    1
    56    26    27   ar
    57    26    56    1
    58    27    28   ar
    59    27    57    1
@<TRIPOS>SUBSTRUCTURE
     1 ZINC001707162141        1 TEMP              0 ****  ****    0 ROOT


##########                                Name:    ZINC000847397179
##########                DOCK_Rotatable_Bonds:                   9
##########                         Heavy_Atoms:                  25
##########                    Molecular_Weight:             350.461
##########                DOCK_Rotatable_Bonds:                   9
##########                       Formal_Charge:          0.00999979
##########                     HBond_Acceptors:                   7
##########                        HBond_Donors:                   2
##########                         Heavy_Atoms:                  25
##########                          Grid_Score:          -33.395378
##########                     Grid_vdw_energy:          -24.921202
##########                      Grid_es_energy:           -8.474178
##########           Internal_energy_repulsive:           84.027115

@<TRIPOS>MOLECULE
ZINC000847397179
 55 56 1 0 0
SMALL
USER_CHARGES


@<TRIPOS>ATOM
      1 C1        -13.4136    3.2638   62.7816 C.3     1  ZINC000847397179   -0.1500
      2 C2        -14.1264    2.0479   63.3768 C.3     1  ZINC000847397179   -0.1000
      3 H3        -15.1519    2.3161   63.6306 H       1  ZINC000847397179    0.0900
      4 C4        -13.3911    1.5929   64.6389 C.3     1  ZINC000847397179   -0.0200
      5 C5        -14.3486    0.8576   65.5408 C.2     1  ZINC000847397179    0.0100
      6 C6        -14.2171    0.6964   66.8713 C.2     1  ZINC000847397179   -0.0500
      7 N7        -15.3007   -0.0266   67.2917 N.pl3   1  ZINC000847397179   -0.5700
      8 C8        -16.0572   -0.2822   66.2027 C.2     1  ZINC000847397179    0.1800
      9 N9        -15.4842    0.2539   65.1600 N.2     1  ZINC000847397179   -0.4900
     10 C10       -14.1349    0.9275   62.3689 C.2     1  ZINC000847397179    0.5200
     11 O11       -15.1507    0.2941   62.1748 O.2     1  ZINC000847397179   -0.5300
     12 N12       -13.0135    0.6295   61.6832 N.am    1  ZINC000847397179   -0.7400
     13 C13       -13.0212   -0.4608   60.7047 C.3     1  ZINC000847397179    0.1200
     14 C14       -11.6172   -0.6327   60.1217 C.3     1  ZINC000847397179    0.1500
     15 H15       -11.3561    0.2461   59.5322 H       1  ZINC000847397179    0.0800
     16 C16       -10.6064   -0.8067   61.2596 C.3     1  ZINC000847397179   -0.1300
     17 C17        -9.2286   -1.1166   60.6699 C.3     1  ZINC000847397179   -0.1200
     18 C18        -9.2935   -2.4242   59.8774 C.3     1  ZINC000847397179   -0.1400
     19 C19       -10.2893   -2.2687   58.7238 C.3     1  ZINC000847397179    0.1100
     20 N20       -11.5816   -1.8274   59.2671 N.am    1  ZINC000847397179   -0.5900
     21 C21       -12.7113   -2.5085   58.9909 C.2     1  ZINC000847397179    0.6500
     22 O22       -13.7736   -2.1334   59.4462 O.2     1  ZINC000847397179   -0.5500
     23 O23       -12.6628   -3.6045   58.2104 O.3     1  ZINC000847397179   -0.3600
     24 C24       -13.1701   -3.4725   56.8563 C.3     1  ZINC000847397179    0.1400
     25 C25       -14.5917   -4.0339   56.7872 C.3     1  ZINC000847397179   -0.1800
     26 C26       -13.1854   -1.9950   56.4591 C.3     1  ZINC000847397179   -0.1400
     27 C27       -12.2677   -4.2495   55.8956 C.3     1  ZINC000847397179   -0.1800
     28 H28       -12.3881    2.9957   62.5278 H       1  ZINC000847397179    0.0500
     29 H29       -13.9376    3.5880   61.8824 H       1  ZINC000847397179    0.0500
     30 H30       -13.4075    4.0742   63.5106 H       1  ZINC000847397179    0.1000
     31 H31       -12.5707    0.9305   64.3627 H       1  ZINC000847397179    0.0800
     32 H32       -12.9947    2.4632   65.1622 H       1  ZINC000847397179    0.0800
     33 H33       -13.4113    1.0661   67.4882 H       1  ZINC000847397179    0.1800
     34 H34       -15.4898   -0.3036   68.2019 H       1  ZINC000847397179    0.4200
     35 H35       -16.9849   -0.8351   66.1964 H       1  ZINC000847397179    0.2100
     36 H36       -12.2014    1.1369   61.8377 H       1  ZINC000847397179    0.3900
     37 H37       -13.3275   -1.3856   61.1936 H       1  ZINC000847397179    0.0800
     38 H38       -13.7211   -0.2246   59.9031 H       1  ZINC000847397179    0.1000
     39 H39       -10.5539    0.1125   61.8433 H       1  ZINC000847397179    0.0800
     40 H40       -10.9202   -1.6290   61.9026 H       1  ZINC000847397179    0.0700
     41 H41        -8.9262   -0.3053   60.0077 H       1  ZINC000847397179    0.0700
     42 H42        -8.5024   -1.2165   61.4766 H       1  ZINC000847397179    0.0700
     43 H43        -8.3066   -2.6565   59.4773 H       1  ZINC000847397179    0.0800
     44 H44        -9.6198   -3.2313   60.5334 H       1  ZINC000847397179    0.0700
     45 H45        -9.9186   -1.5247   58.0189 H       1  ZINC000847397179    0.0700
     46 H46       -10.4136   -3.2256   58.2169 H       1  ZINC000847397179    0.0900
     47 H47       -15.2346   -3.4804   57.4717 H       1  ZINC000847397179    0.0600
     48 H48       -14.9725   -3.9349   55.7707 H       1  ZINC000847397179    0.0700
     49 H49       -14.5807   -5.0865   57.0703 H       1  ZINC000847397179    0.0900
     50 H50       -12.1726   -1.5951   56.5082 H       1  ZINC000847397179    0.0700
     51 H51       -13.5663   -1.8961   55.4426 H       1  ZINC000847397179    0.0800
     52 H52       -13.8283   -1.4415   57.1434 H       1  ZINC000847397179    0.0700
     53 H53       -12.2568   -5.3022   56.1786 H       1  ZINC000847397179    0.0900
     54 H54       -12.6485   -4.1506   54.8791 H       1  ZINC000847397179    0.0700
     55 H55       -11.2549   -3.8496   55.9448 H       1  ZINC000847397179    0.0600
@<TRIPOS>BOND
     1     1     2    1
     2     1    28    1
     3     1    29    1
     4     1    30    1
     5     2     3    1
     6     2     4    1
     7     2    10    1
     8     4     5    1
     9     4    31    1
    10     4    32    1
    11     5     9    1
    12     5     6    2
    13     6     7    1
    14     6    33    1
    15     7     8    1
    16     7    34    1
    17     8     9    2
    18     8    35    1
    19    10    11    2
    20    10    12   am
    21    12    13    1
    22    12    36    1
    23    13    14    1
    24    13    37    1
    25    13    38    1
    26    14    15    1
    27    14    20    1
    28    14    16    1
    29    16    17    1
    30    16    39    1
    31    16    40    1
    32    17    18    1
    33    17    41    1
    34    17    42    1
    35    18    19    1
    36    18    43    1
    37    18    44    1
    38    19    20    1
    39    19    45    1
    40    19    46    1
    41    20    21   am
    42    21    22    2
    43    21    23    1
    44    23    24    1
    45    24    25    1
    46    24    26    1
    47    24    27    1
    48    25    47    1
    49    25    48    1
    50    25    49    1
    51    26    50    1
    52    26    51    1
    53    26    52    1
    54    27    53    1
    55    27    54    1
    56    27    55    1
@<TRIPOS>SUBSTRUCTURE
     1 ZINC000847397179        1 TEMP              0 ****  ****    0 ROOT


##########                                Name:    ZINC000894043060
##########                DOCK_Rotatable_Bonds:                  11
##########                         Heavy_Atoms:                  26
##########                    Molecular_Weight:             396.812
##########                DOCK_Rotatable_Bonds:                  11
##########                       Formal_Charge:          -0.0199999
##########                     HBond_Acceptors:                   9
##########                        HBond_Donors:                   2
##########                         Heavy_Atoms:                  26
##########                          Grid_Score:          -33.389942
##########                     Grid_vdw_energy:          -32.928967
##########                      Grid_es_energy:           -0.460974
##########           Internal_energy_repulsive:           12.189655

@<TRIPOS>MOLECULE
ZINC000894043060
 47 47 1 0 0
SMALL
USER_CHARGES


@<TRIPOS>ATOM
      1 C1        -11.3512    0.4564   53.1054 C.3     1  ZINC000894043060   -0.1700
      2 C2        -10.3968   -0.6585   52.6729 C.3     1  ZINC000894043060    0.1000
      3 H3        -10.7087   -1.0482   51.7039 H       1  ZINC000894043060    0.1100
      4 N4        -10.4240   -1.7367   53.6644 N.am    1  ZINC000894043060   -0.7300
      5 C5        -11.2696   -2.7744   53.5085 C.2     1  ZINC000894043060    0.5200
      6 O6        -12.0092   -2.8150   52.5481 O.2     1  ZINC000894043060   -0.5200
      7 C7        -11.2962   -3.8843   54.5275 C.3     1  ZINC000894043060   -0.1400
      8 C8        -12.2631   -3.5181   55.6553 C.3     1  ZINC000894043060   -0.0200
      9 C9        -13.2836   -4.6434   55.8378 C.3     1  ZINC000894043060   -0.1400
     10 C10       -14.1522   -4.3450   57.0326 C.2     1  ZINC000894043060    0.5200
     11 O11       -14.1126   -5.0668   58.0065 O.2     1  ZINC000894043060   -0.5200
     12 N12       -14.9730   -3.2760   57.0190 N.am    1  ZINC000894043060   -0.7300
     13 C13       -15.8160   -2.9850   58.1812 C.3     1  ZINC000894043060    0.1000
     14 H14       -16.0440   -3.9127   58.7061 H       1  ZINC000894043060    0.1200
     15 C15       -15.0748   -2.0346   59.1237 C.3     1  ZINC000894043060   -0.1700
     16 C16       -17.1176   -2.3292   57.7157 C.3     1  ZINC000894043060    0.2600
     17 F17       -17.9330   -2.0732   58.8233 F       1  ZINC000894043060   -0.1900
     18 F18       -16.8264   -1.1266   57.0630 F       1  ZINC000894043060   -0.2000
     19 C19       -11.4920   -3.3268   56.9359 C.ar    1  ZINC000894043060   -0.0600
     20 C20       -10.8498   -4.4013   57.5227 C.ar    1  ZINC000894043060   -0.1200
     21 C21       -10.1424   -4.2265   58.6972 C.ar    1  ZINC000894043060   -0.1200
     22 C22       -10.0770   -2.9760   59.2855 C.ar    1  ZINC000894043060   -0.0400
     23 Cl23       -9.1883   -2.7556   60.7604 Cl      1  ZINC000894043060   -0.0800
     24 C24       -10.7199   -1.9011   58.6977 C.ar    1  ZINC000894043060   -0.1100
     25 C25       -11.4223   -2.0759   57.5202 C.ar    1  ZINC000894043060   -0.0400
     26 C26        -8.9763   -0.1005   52.5649 C.3     1  ZINC000894043060    0.2600
     27 F27        -8.6010    0.4597   53.7906 F       1  ZINC000894043060   -0.2000
     28 F28        -8.0932   -1.1340   52.2345 F       1  ZINC000894043060   -0.1900
     29 H29       -11.0393    0.8460   54.0744 H       1  ZINC000894043060    0.0600
     30 H30       -11.3310    1.2585   52.3677 H       1  ZINC000894043060    0.0800
     31 H31       -12.3632    0.0589   53.1823 H       1  ZINC000894043060    0.0800
     32 H32        -9.8332   -1.7036   54.4331 H       1  ZINC000894043060    0.4000
     33 H33       -11.6267   -4.8072   54.0510 H       1  ZINC000894043060    0.1000
     34 H34       -10.2962   -4.0250   54.9377 H       1  ZINC000894043060    0.1000
     35 H35       -12.7827   -2.5938   55.4027 H       1  ZINC000894043060    0.1000
     36 H36       -13.9058   -4.7177   54.9459 H       1  ZINC000894043060    0.1000
     37 H37       -12.7603   -5.5864   55.9953 H       1  ZINC000894043060    0.1000
     38 H38       -15.0055   -2.6994   56.2396 H       1  ZINC000894043060    0.4000
     39 H39       -14.8468   -1.1070   58.5987 H       1  ZINC000894043060    0.0700
     40 H40       -15.7021   -1.8181   59.9884 H       1  ZINC000894043060    0.0800
     41 H41       -14.1475   -2.5018   59.4554 H       1  ZINC000894043060    0.0700
     42 H42       -17.6366   -2.9986   57.0296 H       1  ZINC000894043060    0.1200
     43 H43       -10.9012   -5.3774   57.0636 H       1  ZINC000894043060    0.1200
     44 H44        -9.6411   -5.0660   59.1558 H       1  ZINC000894043060    0.1300
     45 H45       -10.6695   -0.9248   59.1567 H       1  ZINC000894043060    0.1300
     46 H46       -11.9239   -1.2369   57.0611 H       1  ZINC000894043060    0.1300
     47 H47        -8.9448    0.6658   51.7904 H       1  ZINC000894043060    0.1100
@<TRIPOS>BOND
     1     1     2    1
     2     1    29    1
     3     1    30    1
     4     1    31    1
     5     2     3    1
     6     2     4    1
     7     2    26    1
     8     4     5   am
     9     4    32    1
    10     5     6    2
    11     5     7    1
    12     7     8    1
    13     7    33    1
    14     7    34    1
    15     8     9    1
    16     8    19    1
    17     8    35    1
    18     9    10    1
    19     9    36    1
    20     9    37    1
    21    10    11    2
    22    10    12   am
    23    12    13    1
    24    12    38    1
    25    13    14    1
    26    13    15    1
    27    13    16    1
    28    15    39    1
    29    15    40    1
    30    15    41    1
    31    16    17    1
    32    16    18    1
    33    16    42    1
    34    19    25   ar
    35    19    20   ar
    36    20    21   ar
    37    20    43    1
    38    21    22   ar
    39    21    44    1
    40    22    23    1
    41    22    24   ar
    42    24    25   ar
    43    24    45    1
    44    25    46    1
    45    26    27    1
    46    26    28    1
    47    26    47    1
@<TRIPOS>SUBSTRUCTURE
     1 ZINC000894043060        1 TEMP              0 ****  ****    0 ROOT


##########                                Name:    ZINC000880838037
##########                DOCK_Rotatable_Bonds:                   9
##########                         Heavy_Atoms:                  24
##########                    Molecular_Weight:             365.477
##########                DOCK_Rotatable_Bonds:                   9
##########                       Formal_Charge:           0.0200001
##########                     HBond_Acceptors:                   8
##########                        HBond_Donors:                   3
##########                         Heavy_Atoms:                  24
##########                          Grid_Score:          -33.382999
##########                     Grid_vdw_energy:          -33.169731
##########                      Grid_es_energy:           -0.213269
##########           Internal_energy_repulsive:           12.791756

@<TRIPOS>MOLECULE
ZINC000880838037
 43 44 1 0 0
SMALL
USER_CHARGES


@<TRIPOS>ATOM
      1 C1         -9.3992   -0.6712   61.6000 C.3     1  ZINC000880838037    0.0300
      2 O2        -10.3593   -1.7125   61.4097 O.3     1  ZINC000880838037   -0.3100
      3 C3        -10.2836   -2.4171   60.2501 C.ar    1  ZINC000880838037    0.1400
      4 C4         -9.1530   -3.1707   59.9682 C.ar    1  ZINC000880838037   -0.2200
      5 C5         -9.0745   -3.8877   58.7892 C.ar    1  ZINC000880838037   -0.0700
      6 C6        -10.1206   -3.8562   57.8878 C.ar    1  ZINC000880838037   -0.1500
      7 C7        -11.2547   -3.1030   58.1646 C.ar    1  ZINC000880838037    0.1800
      8 N8        -12.3144   -3.0710   57.2514 N.am    1  ZINC000880838037   -0.6700
      9 C9        -12.9750   -4.2053   56.9455 C.2     1  ZINC000880838037    0.5200
     10 O10       -12.6508   -5.2538   57.4619 O.2     1  ZINC000880838037   -0.4900
     11 C11       -14.1162   -4.1708   55.9621 C.3     1  ZINC000880838037   -0.0600
     12 C12       -13.6303   -3.6155   54.6480 C.2     1  ZINC000880838037    0.1000
     13 C13       -12.3656   -3.7295   54.2413 C.2     1  ZINC000880838037   -0.2600
     14 S14       -12.2246   -2.9511   52.6672 S.3     1  ZINC000880838037    0.1300
     15 C15       -13.8850   -2.5457   52.7070 C.2     1  ZINC000880838037    0.0100
     16 S16       -14.7412   -1.6709   51.4396 S.3     1  ZINC000880838037    0.1000
     17 C17       -13.3469   -0.8531   50.6253 C.3     1  ZINC000880838037   -0.1500
     18 H18       -12.4840   -1.5190   50.6264 H       1  ZINC000880838037    0.1200
     19 C19       -12.9996    0.4330   51.3778 C.3     1  ZINC000880838037   -0.1500
     20 C20       -13.7211   -0.5181   49.2044 C.2     1  ZINC000880838037    0.5400
     21 N21       -14.4732   -1.3751   48.4858 N.am    1  ZINC000880838037   -0.8400
     22 O22       -13.3454    0.5225   48.7076 O.2     1  ZINC000880838037   -0.5200
     23 N23       -14.4242   -2.9815   53.8039 N.2     1  ZINC000880838037   -0.4200
     24 C24       -11.3380   -2.3878   59.3507 C.ar    1  ZINC000880838037   -0.1500
     25 C25       -12.5668   -1.5698   59.6544 C.3     1  ZINC000880838037   -0.1000
     26 H26        -9.4993    0.0653   60.8028 H       1  ZINC000880838037    0.0600
     27 H27        -9.5711   -0.1901   62.5630 H       1  ZINC000880838037    0.1000
     28 H28        -8.3951   -1.0947   61.5797 H       1  ZINC000880838037    0.0600
     29 H29        -8.3332   -3.1966   60.6708 H       1  ZINC000880838037    0.1300
     30 H30        -8.1935   -4.4734   58.5722 H       1  ZINC000880838037    0.1300
     31 H31       -10.0566   -4.4170   56.9670 H       1  ZINC000880838037    0.1400
     32 H32       -12.5736   -2.2324   56.8385 H       1  ZINC000880838037    0.4100
     33 H33       -14.4966   -5.1811   55.8112 H       1  ZINC000880838037    0.1200
     34 H34       -14.9128   -3.5372   56.3519 H       1  ZINC000880838037    0.1200
     35 H35       -11.5667   -4.2141   54.7828 H       1  ZINC000880838037    0.1800
     36 H36       -13.8624    1.0990   51.3767 H       1  ZINC000880838037    0.0900
     37 H37       -12.7289    0.1907   52.4055 H       1  ZINC000880838037    0.0800
     38 H38       -12.1599    0.9254   50.8874 H       1  ZINC000880838037    0.0800
     39 H39       -14.7151   -1.1590   47.5716 H       1  ZINC000880838037    0.4000
     40 H40       -14.7726   -2.2079   48.8828 H       1  ZINC000880838037    0.4100
     41 H41       -13.2906   -2.1858   60.1878 H       1  ZINC000880838037    0.0700
     42 H42       -12.2909   -0.7156   60.2727 H       1  ZINC000880838037    0.0700
     43 H43       -13.0074   -1.2163   58.7222 H       1  ZINC000880838037    0.0600
@<TRIPOS>BOND
     1     1     2    1
     2     1    26    1
     3     1    27    1
     4     1    28    1
     5     2     3    1
     6     3    24   ar
     7     3     4   ar
     8     4     5   ar
     9     4    29    1
    10     5     6   ar
    11     5    30    1
    12     6     7   ar
    13     6    31    1
    14     7     8    1
    15     7    24   ar
    16     8     9   am
    17     8    32    1
    18     9    10    2
    19     9    11    1
    20    11    12    1
    21    11    33    1
    22    11    34    1
    23    12    23    1
    24    12    13    2
    25    13    14    1
    26    13    35    1
    27    14    15    1
    28    15    16    1
    29    15    23    2
    30    16    17    1
    31    17    18    1
    32    17    19    1
    33    17    20    1
    34    19    36    1
    35    19    37    1
    36    19    38    1
    37    20    21   am
    38    20    22    2
    39    21    39    1
    40    21    40    1
    41    24    25    1
    42    25    41    1
    43    25    42    1
    44    25    43    1
@<TRIPOS>SUBSTRUCTURE
     1 ZINC000880838037        1 TEMP              0 ****  ****    0 ROOT


##########                                Name:    ZINC000550952205
##########                DOCK_Rotatable_Bonds:                   7
##########                         Heavy_Atoms:                  28
##########                    Molecular_Weight:             407.484
##########                DOCK_Rotatable_Bonds:                   7
##########                       Formal_Charge:        -2.68221e-07
##########                     HBond_Acceptors:                   8
##########                        HBond_Donors:                   2
##########                         Heavy_Atoms:                  28
##########                          Grid_Score:          -33.369221
##########                     Grid_vdw_energy:          -31.904737
##########                      Grid_es_energy:           -1.464482
##########           Internal_energy_repulsive:            6.059460

@<TRIPOS>MOLECULE
ZINC000550952205
 51 54 1 0 0
SMALL
USER_CHARGES


@<TRIPOS>ATOM
      1 O1         -7.9832   -0.2785   63.1659 O.2     1  ZINC000550952205   -0.5100
      2 C2         -9.1704   -0.2813   62.9141 C.2     1  ZINC000550952205    0.5100
      3 N3        -10.0337    0.3559   63.7296 N.am    1  ZINC000550952205   -0.7000
      4 C4         -9.5397    1.0469   64.9233 C.3     1  ZINC000550952205    0.1200
      5 C5        -10.4990    2.1812   65.2896 C.3     1  ZINC000550952205   -0.0900
      6 H6        -10.5687    2.8842   64.4593 H       1  ZINC000550952205    0.1000
      7 C7        -11.8607    1.6149   65.5882 C.3     1  ZINC000550952205   -0.1300
      8 C8        -12.9992    2.5598   65.1584 C.3     1  ZINC000550952205   -0.1200
      9 C9        -12.7098    4.0353   65.4936 C.3     1  ZINC000550952205   -0.1300
     10 C10       -12.0897    4.2058   66.8539 C.3     1  ZINC000550952205   -0.1500
     11 C11       -10.5561    4.2395   66.6926 C.3     1  ZINC000550952205    0.3000
     12 F12       -10.2364    4.9956   65.5597 F       1  ZINC000550952205   -0.2000
     13 F13        -9.9954    4.8521   67.8185 F       1  ZINC000550952205   -0.2000
     14 C14        -9.9815    2.9122   66.5452 C.3     1  ZINC000550952205   -0.1700
     15 C15        -9.6739   -0.9856   61.6975 C.2     1  ZINC000550952205    0.5100
     16 O16       -10.8680   -1.0738   61.4977 O.2     1  ZINC000550952205   -0.4900
     17 N17        -8.8026   -1.5234   60.8211 N.am    1  ZINC000550952205   -0.6400
     18 C18        -9.2740   -2.1828   59.6822 C.ar    1  ZINC000550952205    0.1500
     19 C19        -9.2609   -3.5756   59.6264 C.ar    1  ZINC000550952205   -0.1200
     20 C20        -9.7167   -4.2310   58.5243 C.ar    1  ZINC000550952205   -0.0400
     21 C21       -10.2113   -3.5123   57.4169 C.ar    1  ZINC000550952205    0.0800
     22 N22       -10.7010   -3.9670   56.2472 N.2     1  ZINC000550952205   -0.4700
     23 C23       -11.0931   -3.1048   55.3878 C.2     1  ZINC000550952205    0.1200
     24 C24       -11.6642   -3.4532   54.0374 C.3     1  ZINC000550952205   -0.1100
     25 C25       -12.5442   -4.7012   53.9430 C.3     1  ZINC000550952205   -0.1500
     26 C26       -13.1760   -3.3108   53.8516 C.3     1  ZINC000550952205   -0.1500
     27 S27       -10.8898   -1.5107   55.9617 S.3     1  ZINC000550952205    0.1200
     28 C28       -10.2236   -2.1137   57.4762 C.ar    1  ZINC000550952205   -0.1700
     29 C29        -9.7596   -1.4539   58.6109 C.ar    1  ZINC000550952205   -0.0700
     30 H30       -10.9822    0.3570   63.5263 H       1  ZINC000550952205    0.4200
     31 H31        -9.4778    0.3416   65.7520 H       1  ZINC000550952205    0.0800
     32 H32        -8.5507    1.4584   64.7216 H       1  ZINC000550952205    0.0800
     33 H33       -11.9716    0.6668   65.0619 H       1  ZINC000550952205    0.0700
     34 H34       -11.9395    1.4325   66.6599 H       1  ZINC000550952205    0.0700
     35 H35       -13.1465    2.4661   64.0824 H       1  ZINC000550952205    0.0700
     36 H36       -13.9164    2.2578   65.6640 H       1  ZINC000550952205    0.0700
     37 H37       -12.0310    4.4409   64.7434 H       1  ZINC000550952205    0.0800
     38 H38       -13.6448    4.5947   65.4596 H       1  ZINC000550952205    0.0700
     39 H39       -12.4317    5.1407   67.2978 H       1  ZINC000550952205    0.0900
     40 H40       -12.3723    3.3690   67.4927 H       1  ZINC000550952205    0.1000
     41 H41       -10.2358    2.3180   67.4230 H       1  ZINC000550952205    0.1000
     42 H42        -8.8969    3.0018   66.4841 H       1  ZINC000550952205    0.1000
     43 H43        -7.8484   -1.4529   60.9806 H       1  ZINC000550952205    0.4300
     44 H44        -8.8847   -4.1406   60.4665 H       1  ZINC000550952205    0.1400
     45 H45        -9.6990   -5.3106   58.4977 H       1  ZINC000550952205    0.1400
     46 H46       -11.0279   -3.2198   53.1836 H       1  ZINC000550952205    0.1300
     47 H47       -12.4870   -5.2893   53.0271 H       1  ZINC000550952205    0.1000
     48 H48       -12.7101   -5.2703   54.8577 H       1  ZINC000550952205    0.1100
     49 H49       -13.7579   -2.9652   54.7061 H       1  ZINC000550952205    0.1000
     50 H50       -13.5347   -2.9842   52.8754 H       1  ZINC000550952205    0.1100
     51 H51        -9.7763   -0.3750   58.6539 H       1  ZINC000550952205    0.1400
@<TRIPOS>BOND
     1     1     2    2
     2     2     3   am
     3     2    15    1
     4     3     4    1
     5     3    30    1
     6     4     5    1
     7     4    31    1
     8     4    32    1
     9     5     6    1
    10     5    14    1
    11     5     7    1
    12     7     8    1
    13     7    33    1
    14     7    34    1
    15     8     9    1
    16     8    35    1
    17     8    36    1
    18     9    10    1
    19     9    37    1
    20     9    38    1
    21    10    11    1
    22    10    39    1
    23    10    40    1
    24    11    12    1
    25    11    13    1
    26    11    14    1
    27    14    41    1
    28    14    42    1
    29    15    16    2
    30    15    17   am
    31    17    18    1
    32    17    43    1
    33    18    29   ar
    34    18    19   ar
    35    19    20   ar
    36    19    44    1
    37    20    21   ar
    38    20    45    1
    39    21    28   ar
    40    21    22    1
    41    22    23    2
    42    23    24    1
    43    23    27    1
    44    24    26    1
    45    24    25    1
    46    24    46    1
    47    25    26    1
    48    25    47    1
    49    25    48    1
    50    26    49    1
    51    26    50    1
    52    27    28    1
    53    28    29   ar
    54    29    51    1
@<TRIPOS>SUBSTRUCTURE
     1 ZINC000550952205        1 TEMP              0 ****  ****    0 ROOT


##########                                Name:    ZINC000587344575
##########                DOCK_Rotatable_Bonds:                   7
##########                         Heavy_Atoms:                  30
##########                    Molecular_Weight:             408.475
##########                DOCK_Rotatable_Bonds:                   7
##########                       Formal_Charge:          -0.0100002
##########                     HBond_Acceptors:                   7
##########                        HBond_Donors:                   2
##########                         Heavy_Atoms:                  30
##########                          Grid_Score:          -33.367615
##########                     Grid_vdw_energy:          -32.353962
##########                      Grid_es_energy:           -1.013653
##########           Internal_energy_repulsive:           15.684131

@<TRIPOS>MOLECULE
ZINC000587344575
 55 57 1 0 0
SMALL
USER_CHARGES


@<TRIPOS>ATOM
      1 C1        -15.3583   -1.0019   53.9216 C.3     1  ZINC000587344575   -0.1200
      2 C2        -13.9634   -1.5656   53.8340 C.ar    1  ZINC000587344575    0.0000
      3 C3        -13.2713   -1.8737   54.9831 C.ar    1  ZINC000587344575   -0.1600
      4 C4        -11.9835   -2.3947   54.9031 C.ar    1  ZINC000587344575    0.1800
      5 N5        -11.2854   -2.7061   56.0693 N.am    1  ZINC000587344575   -0.6700
      6 C6        -10.9164   -1.7248   56.9163 C.2     1  ZINC000587344575    0.5200
      7 O7        -11.1917   -0.5709   56.6641 O.2     1  ZINC000587344575   -0.5000
      8 C8        -10.1619   -2.0614   58.1766 C.3     1  ZINC000587344575   -0.1200
      9 H9         -9.1254   -2.3041   57.9429 H       1  ZINC000587344575    0.1100
     10 C10       -10.8383   -3.2441   58.9072 C.3     1  ZINC000587344575   -0.1200
     11 C11       -10.7177   -2.8443   60.3993 C.3     1  ZINC000587344575    0.0400
     12 N12       -10.9291   -1.3743   60.3754 N.3     1  ZINC000587344575   -0.4800
     13 C13       -10.4185   -0.7776   61.5263 C.ar    1  ZINC000587344575    0.0700
     14 C14        -9.0962   -1.0001   61.8949 C.ar    1  ZINC000587344575   -0.1200
     15 C15        -8.5879   -0.4124   63.0321 C.ar    1  ZINC000587344575   -0.0700
     16 C16        -9.4019    0.4092   63.8167 C.ar    1  ZINC000587344575    0.0000
     17 C17        -8.8755    1.0217   64.9993 C.1     1  ZINC000587344575    0.2500
     18 N18        -8.4581    1.5076   65.9374 N.1     1  ZINC000587344575   -0.4000
     19 C19       -10.7314    0.6321   63.4443 C.ar    1  ZINC000587344575   -0.1000
     20 C20       -11.2324    0.0455   62.3026 C.ar    1  ZINC000587344575    0.1300
     21 F21       -12.5163    0.2602   61.9410 F       1  ZINC000587344575   -0.1200
     22 C22       -10.2249   -0.8846   59.1677 C.3     1  ZINC000587344575    0.0500
     23 C23       -11.3912   -2.6060   53.6622 C.ar    1  ZINC000587344575   -0.1400
     24 C24       -12.0779   -2.3001   52.5088 C.ar    1  ZINC000587344575   -0.0600
     25 C25       -13.3734   -1.7816   52.5855 C.ar    1  ZINC000587344575   -0.1600
     26 C26       -14.1127   -1.4529   51.3510 C.2     1  ZINC000587344575    0.5600
     27 O27       -15.1661   -2.0089   51.1071 O.2     1  ZINC000587344575   -0.5300
     28 N28       -13.6201   -0.5366   50.4943 N.am    1  ZINC000587344575   -0.7200
     29 C29       -14.3531   -0.2116   49.2682 C.3     1  ZINC000587344575    0.1400
     30 C30       -14.0567    1.2342   48.8647 C.3     1  ZINC000587344575   -0.1600
     31 C31       -13.9136   -1.1545   48.1462 C.3     1  ZINC000587344575   -0.1600
     32 H32       -16.0836   -1.8068   53.8030 H       1  ZINC000587344575    0.0800
     33 H33       -15.4979   -0.5272   54.8928 H       1  ZINC000587344575    0.0600
     34 H34       -15.5021   -0.2639   53.1324 H       1  ZINC000587344575    0.1000
     35 H35       -13.7282   -1.7105   55.9481 H       1  ZINC000587344575    0.1300
     36 H36       -11.0652   -3.6290   56.2709 H       1  ZINC000587344575    0.4100
     37 H37       -11.8847   -3.3308   58.6145 H       1  ZINC000587344575    0.0900
     38 H38       -10.3040   -4.1740   58.7127 H       1  ZINC000587344575    0.0900
     39 H39       -11.4897   -3.3344   60.9925 H       1  ZINC000587344575    0.0900
     40 H40        -9.7260   -3.0842   60.7828 H       1  ZINC000587344575    0.0600
     41 H41        -8.4669   -1.6349   61.2887 H       1  ZINC000587344575    0.1400
     42 H42        -7.5610   -0.5867   63.3175 H       1  ZINC000587344575    0.1400
     43 H43       -11.3631    1.2666   64.0483 H       1  ZINC000587344575    0.1500
     44 H44        -9.2170   -0.5630   59.4304 H       1  ZINC000587344575    0.0600
     45 H45       -10.7784   -0.0561   58.7256 H       1  ZINC000587344575    0.1100
     46 H46       -10.3914   -3.0102   53.6036 H       1  ZINC000587344575    0.1400
     47 H47       -11.6175   -2.4643   51.5457 H       1  ZINC000587344575    0.1300
     48 H48       -12.7803   -0.0922   50.6895 H       1  ZINC000587344575    0.4000
     49 H49       -15.4227   -0.3281   49.4426 H       1  ZINC000587344575    0.0900
     50 H50       -12.9870    1.3507   48.6903 H       1  ZINC000587344575    0.0600
     51 H51       -14.6020    1.4759   47.9525 H       1  ZINC000587344575    0.0700
     52 H52       -14.3698    1.9059   49.6640 H       1  ZINC000587344575    0.0600
     53 H53       -12.8440   -1.0380   47.9717 H       1  ZINC000587344575    0.0600
     54 H54       -14.1248   -2.1844   48.4336 H       1  ZINC000587344575    0.0600
     55 H55       -14.4590   -0.9128   47.2340 H       1  ZINC000587344575    0.0700
@<TRIPOS>BOND
     1     1     2    1
     2     1    32    1
     3     1    33    1
     4     1    34    1
     5     2    25   ar
     6     2     3   ar
     7     3     4   ar
     8     3    35    1
     9     4     5    1
    10     4    23   ar
    11     5     6   am
    12     5    36    1
    13     6     7    2
    14     6     8    1
    15     8     9    1
    16     8    22    1
    17     8    10    1
    18    10    11    1
    19    10    37    1
    20    10    38    1
    21    11    12    1
    22    11    39    1
    23    11    40    1
    24    12    13    1
    25    12    22    1
    26    13    20   ar
    27    13    14   ar
    28    14    15   ar
    29    14    41    1
    30    15    16   ar
    31    15    42    1
    32    16    17    1
    33    16    19   ar
    34    17    18    3
    35    19    20   ar
    36    19    43    1
    37    20    21    1
    38    22    44    1
    39    22    45    1
    40    23    24   ar
    41    23    46    1
    42    24    25   ar
    43    24    47    1
    44    25    26    1
    45    26    27    2
    46    26    28   am
    47    28    29    1
    48    28    48    1
    49    29    30    1
    50    29    31    1
    51    29    49    1
    52    30    50    1
    53    30    51    1
    54    30    52    1
    55    31    53    1
    56    31    54    1
    57    31    55    1
@<TRIPOS>SUBSTRUCTURE
     1 ZINC000587344575        1 TEMP              0 ****  ****    0 ROOT


##########                                Name:    ZINC000821177065
##########                DOCK_Rotatable_Bonds:                  10
##########                         Heavy_Atoms:                  25
##########                    Molecular_Weight:             341.413
##########                DOCK_Rotatable_Bonds:                  10
##########                       Formal_Charge:          0.00999917
##########                     HBond_Acceptors:                   7
##########                        HBond_Donors:                   3
##########                         Heavy_Atoms:                  25
##########                          Grid_Score:          -33.358273
##########                     Grid_vdw_energy:          -31.409796
##########                      Grid_es_energy:           -1.948478
##########           Internal_energy_repulsive:           14.921151

@<TRIPOS>MOLECULE
ZINC000821177065
 48 51 1 0 0
SMALL
USER_CHARGES


@<TRIPOS>ATOM
      1 O1        -11.0479   -2.9675   55.6418 O.2     1  ZINC000821177065   -0.5600
      2 C2        -11.7802   -3.8815   55.9685 C.2     1  ZINC000821177065    0.7100
      3 N3        -12.6590   -4.3906   55.0825 N.am    1  ZINC000821177065   -0.7300
      4 C4        -12.7359   -3.8388   53.7275 C.3     1  ZINC000821177065    0.1200
      5 C5        -13.8081   -2.7483   53.6811 C.3     1  ZINC000821177065    0.1900
      6 O6        -13.3585   -1.6068   54.4138 O.3     1  ZINC000821177065   -0.5400
      7 C7        -14.0687   -2.3508   52.2269 C.3     1  ZINC000821177065   -0.1500
      8 C8        -14.0196   -0.8609   51.8821 C.3     1  ZINC000821177065   -0.1600
      9 C9        -12.8919   -1.7892   51.4263 C.3     1  ZINC000821177065   -0.1700
     10 C10       -15.1012   -3.2776   54.3046 C.3     1  ZINC000821177065   -0.1800
     11 C11       -15.4870   -2.7485   55.6873 C.3     1  ZINC000821177065   -0.1900
     12 C12       -16.2676   -2.2982   54.4508 C.3     1  ZINC000821177065   -0.1700
     13 N13       -11.7094   -4.3891   57.2150 N.am    1  ZINC000821177065   -0.6500
     14 C14       -10.7953   -3.8595   58.1366 C.2     1  ZINC000821177065    0.3200
     15 N15       -10.9584   -2.7651   58.8419 N.2     1  ZINC000821177065   -0.3200
     16 N16        -9.8204   -2.5852   59.6385 N.pl3   1  ZINC000821177065   -0.3600
     17 C17        -9.5926   -1.4841   60.5776 C.3     1  ZINC000821177065    0.1900
     18 C18        -9.2895   -0.2234   59.8097 C.ar    1  ZINC000821177065    0.1100
     19 C19        -9.5763    1.0052   60.3732 C.ar    1  ZINC000821177065   -0.1500
     20 C20        -9.2931    2.1592   59.6584 C.ar    1  ZINC000821177065   -0.0700
     21 C21        -8.7296    2.0331   58.3982 C.ar    1  ZINC000821177065   -0.1700
     22 C22        -8.4705    0.7702   57.8995 C.ar    1  ZINC000821177065    0.1000
     23 N23        -8.7484   -0.3054   58.6096 N.ar    1  ZINC000821177065   -0.4700
     24 C24        -8.9707   -3.6039   59.3900 C.2     1  ZINC000821177065    0.0700
     25 C25        -9.5480   -4.4106   58.4708 C.2     1  ZINC000821177065   -0.2600
     26 H26       -13.2404   -5.1224   55.3419 H       1  ZINC000821177065    0.4000
     27 H27       -11.7712   -3.4117   53.4538 H       1  ZINC000821177065    0.0700
     28 H28       -12.9942   -4.6323   53.0262 H       1  ZINC000821177065    0.0800
     29 H29       -14.0041   -0.8883   54.4578 H       1  ZINC000821177065    0.3800
     30 H30       -14.7917   -2.9677   51.6931 H       1  ZINC000821177065    0.1100
     31 H31       -14.7105   -0.4973   51.1215 H       1  ZINC000821177065    0.0900
     32 H32       -13.8016   -0.1640   52.6913 H       1  ZINC000821177065    0.1100
     33 H33       -11.9322   -1.7030   51.9357 H       1  ZINC000821177065    0.1000
     34 H34       -12.8410   -2.0363   50.3659 H       1  ZINC000821177065    0.0900
     35 H35       -15.3416   -4.3162   54.0777 H       1  ZINC000821177065    0.1100
     36 H36       -15.9813   -3.4390   56.3706 H       1  ZINC000821177065    0.1000
     37 H37       -14.8197   -2.0232   56.1529 H       1  ZINC000821177065    0.1100
     38 H38       -16.1136   -1.2768   54.1029 H       1  ZINC000821177065    0.0900
     39 H39       -17.2753   -2.6926   54.3205 H       1  ZINC000821177065    0.1000
     40 H40       -12.2909   -5.1209   57.4744 H       1  ZINC000821177065    0.4100
     41 H41       -10.4853   -1.3339   61.1848 H       1  ZINC000821177065    0.1000
     42 H42        -8.7498   -1.7270   61.2247 H       1  ZINC000821177065    0.1200
     43 H43       -10.0159    1.0659   61.3579 H       1  ZINC000821177065    0.1400
     44 H44        -9.5068    3.1331   60.0735 H       1  ZINC000821177065    0.1400
     45 H45        -8.4961    2.9105   57.8132 H       1  ZINC000821177065    0.1400
     46 H46        -8.0319    0.6634   56.9184 H       1  ZINC000821177065    0.1600
     47 H47        -8.0036   -3.7512   59.8474 H       1  ZINC000821177065    0.1800
     48 H48        -9.1219   -5.3145   58.0610 H       1  ZINC000821177065    0.1700
@<TRIPOS>BOND
     1     1     2    2
     2     2     3   am
     3     2    13   am
     4     3     4    1
     5     3    26    1
     6     4     5    1
     7     4    27    1
     8     4    28    1
     9     5     6    1
    10     5     7    1
    11     5    10    1
    12     6    29    1
    13     7     9    1
    14     7     8    1
    15     7    30    1
    16     8     9    1
    17     8    31    1
    18     8    32    1
    19     9    33    1
    20     9    34    1
    21    10    12    1
    22    10    11    1
    23    10    35    1
    24    11    12    1
    25    11    36    1
    26    11    37    1
    27    12    38    1
    28    12    39    1
    29    13    14    1
    30    13    40    1
    31    14    25    1
    32    14    15    2
    33    15    16    1
    34    16    17    1
    35    16    24    1
    36    17    18    1
    37    17    41    1
    38    17    42    1
    39    18    23   ar
    40    18    19   ar
    41    19    20   ar
    42    19    43    1
    43    20    21   ar
    44    20    44    1
    45    21    22   ar
    46    21    45    1
    47    22    23   ar
    48    22    46    1
    49    24    25    2
    50    24    47    1
    51    25    48    1
@<TRIPOS>SUBSTRUCTURE
     1 ZINC000821177065        1 TEMP              0 ****  ****    0 ROOT


##########                                Name:    ZINC000504243286
##########                DOCK_Rotatable_Bonds:                   7
##########                         Heavy_Atoms:                  29
##########                    Molecular_Weight:             408.337
##########                DOCK_Rotatable_Bonds:                   7
##########                       Formal_Charge:           0.0299994
##########                     HBond_Acceptors:                  11
##########                        HBond_Donors:                   3
##########                         Heavy_Atoms:                  29
##########                          Grid_Score:          -33.336788
##########                     Grid_vdw_energy:          -33.413589
##########                      Grid_es_energy:            0.076802
##########           Internal_energy_repulsive:           10.794633

@<TRIPOS>MOLECULE
ZINC000504243286
 44 46 1 0 0
SMALL
USER_CHARGES


@<TRIPOS>ATOM
      1 O1        -13.4047   -5.3132   57.4494 O.2     1  ZINC000504243286   -0.5200
      2 C2        -13.0941   -4.8280   56.3820 C.2     1  ZINC000504243286    0.5200
      3 C3        -13.9201   -5.1154   55.1548 C.3     1  ZINC000504243286   -0.1600
      4 C4        -14.4558   -3.8019   54.5816 C.3     1  ZINC000504243286    0.1300
      5 N5        -13.5243   -3.2940   53.5713 N.pl3   1  ZINC000504243286   -0.7200
      6 C6        -13.2855   -1.9217   53.4687 C.ar    1  ZINC000504243286    0.3100
      7 C7        -14.2909   -1.0152   53.7790 C.ar    1  ZINC000504243286   -0.1900
      8 C8        -14.0513    0.3413   53.6769 C.ar    1  ZINC000504243286    0.0200
      9 C9        -12.8122    0.7970   53.2662 C.ar    1  ZINC000504243286   -0.2400
     10 C10       -12.5542    2.2777   53.1565 C.3     1  ZINC000504243286    0.5200
     11 F11       -13.4140    2.9660   54.0192 F       1  ZINC000504243286   -0.1700
     12 F12       -11.2272    2.5472   53.5078 F       1  ZINC000504243286   -0.1700
     13 F13       -12.7821    2.6945   51.8406 F       1  ZINC000504243286   -0.1700
     14 C14       -11.8087   -0.1030   52.9565 C.ar    1  ZINC000504243286    0.0400
     15 C15       -12.0400   -1.4603   53.0615 C.ar    1  ZINC000504243286   -0.1200
     16 N16       -10.9656   -2.4226   52.7298 N.pl3   1  ZINC000504243286    0.0400
     17 O17       -10.8375   -3.4419   53.3842 O.2     1  ZINC000504243286   -0.1700
     18 O18       -10.2094   -2.1955   51.8023 O.2     1  ZINC000504243286   -0.1400
     19 N19       -12.0134   -4.0274   56.2947 N.am    1  ZINC000504243286   -0.6700
     20 C20       -11.2456   -3.7602   57.4354 C.ar    1  ZINC000504243286    0.1200
     21 C21       -10.3026   -4.6807   57.8728 C.ar    1  ZINC000504243286   -0.1000
     22 C22        -9.5448   -4.4204   58.9952 C.ar    1  ZINC000504243286   -0.1200
     23 C23        -9.7204   -3.2311   59.6997 C.ar    1  ZINC000504243286    0.1300
     24 N24        -9.0854   -2.7484   60.8467 N.am    1  ZINC000504243286   -0.6600
     25 C25        -9.5488   -1.5422   61.2147 C.2     1  ZINC000504243286    0.5300
     26 O26        -9.1803   -0.8892   62.1681 O.2     1  ZINC000504243286   -0.5000
     27 C27       -10.6170   -1.1509   60.2159 C.3     1  ZINC000504243286   -0.1200
     28 C28       -10.6666   -2.3160   59.2545 C.ar    1  ZINC000504243286   -0.1200
     29 C29       -11.4203   -2.5698   58.1318 C.ar    1  ZINC000504243286   -0.0600
     30 H30       -13.3006   -5.6119   54.4079 H       1  ZINC000504243286    0.1100
     31 H31       -14.7554   -5.7625   55.4224 H       1  ZINC000504243286    0.1100
     32 H32       -15.4294   -3.9757   54.1233 H       1  ZINC000504243286    0.0800
     33 H33       -14.5569   -3.0702   55.3831 H       1  ZINC000504243286    0.0900
     34 H34       -13.0734   -3.9108   52.9737 H       1  ZINC000504243286    0.4100
     35 H35       -15.2592   -1.3705   54.0995 H       1  ZINC000504243286    0.1600
     36 H36       -14.8328    1.0468   53.9177 H       1  ZINC000504243286    0.1600
     37 H37       -10.8419    0.2563   52.6360 H       1  ZINC000504243286    0.1600
     38 H38       -11.7674   -3.6360   55.4419 H       1  ZINC000504243286    0.4200
     39 H39       -10.1620   -5.6047   57.3317 H       1  ZINC000504243286    0.1400
     40 H40        -8.8131   -5.1410   59.3295 H       1  ZINC000504243286    0.1300
     41 H41        -8.3899   -3.2288   61.3226 H       1  ZINC000504243286    0.4100
     42 H42       -11.5783   -1.0259   60.7143 H       1  ZINC000504243286    0.1300
     43 H43       -10.3348   -0.2367   59.6937 H       1  ZINC000504243286    0.1300
     44 H44       -12.1486   -1.8472   57.7943 H       1  ZINC000504243286    0.1500
@<TRIPOS>BOND
     1     1     2    2
     2     2     3    1
     3     2    19   am
     4     3     4    1
     5     3    30    1
     6     3    31    1
     7     4     5    1
     8     4    32    1
     9     4    33    1
    10     5     6    1
    11     5    34    1
    12     6    15   ar
    13     6     7   ar
    14     7     8   ar
    15     7    35    1
    16     8     9   ar
    17     8    36    1
    18     9    10    1
    19     9    14   ar
    20    10    11    1
    21    10    12    1
    22    10    13    1
    23    14    15   ar
    24    14    37    1
    25    15    16    1
    26    16    17    2
    27    16    18    2
    28    19    20    1
    29    19    38    1
    30    20    29   ar
    31    20    21   ar
    32    21    22   ar
    33    21    39    1
    34    22    23   ar
    35    22    40    1
    36    23    28   ar
    37    23    24    1
    38    24    25   am
    39    24    41    1
    40    25    26    2
    41    25    27    1
    42    27    28    1
    43    27    42    1
    44    27    43    1
    45    28    29   ar
    46    29    44    1
@<TRIPOS>SUBSTRUCTURE
     1 ZINC000504243286        1 TEMP              0 ****  ****    0 ROOT


##########                                Name:    ZINC000673213454
##########                DOCK_Rotatable_Bonds:                   7
##########                         Heavy_Atoms:                  26
##########                    Molecular_Weight:             360.453
##########                DOCK_Rotatable_Bonds:                   7
##########                       Formal_Charge:          -0.0100001
##########                     HBond_Acceptors:                   6
##########                        HBond_Donors:                   1
##########                         Heavy_Atoms:                  26
##########                          Grid_Score:          -33.320900
##########                     Grid_vdw_energy:          -33.309441
##########                      Grid_es_energy:           -0.011459
##########           Internal_energy_repulsive:           24.477930

@<TRIPOS>MOLECULE
ZINC000673213454
 54 56 1 0 0
SMALL
USER_CHARGES


@<TRIPOS>ATOM
      1 C1         -9.1312   -3.7259   59.7442 C.3     1  ZINC000673213454   -0.1700
      2 C2         -9.3820   -2.8637   58.5053 C.3     1  ZINC000673213454    0.1400
      3 H3         -8.6988   -3.1626   57.7104 H       1  ZINC000673213454    0.0900
      4 C4         -9.1482   -1.3920   58.8523 C.3     1  ZINC000673213454   -0.1200
      5 C5        -10.0687   -0.9875   60.0054 C.3     1  ZINC000673213454   -0.1300
      6 H6        -10.9778   -1.5887   59.9957 H       1  ZINC000673213454    0.0800
      7 C7        -10.4144    0.5192   59.9198 C.3     1  ZINC000673213454   -0.1500
      8 C8        -10.3463    0.9529   61.4063 C.3     1  ZINC000673213454    0.0500
      9 O9         -9.2446    0.1818   61.9320 O.3     1  ZINC000673213454   -0.3800
     10 C10        -9.3393   -1.1346   61.3549 C.3     1  ZINC000673213454    0.0500
     11 N11       -10.7642   -3.0458   58.0554 N.am    1  ZINC000673213454   -0.6900
     12 C12       -11.0794   -4.0770   57.2468 C.2     1  ZINC000673213454    0.5100
     13 O13       -10.2185   -4.8555   56.8927 O.2     1  ZINC000673213454   -0.5100
     14 C14       -12.4892   -4.2617   56.7863 C.2     1  ZINC000673213454    0.5000
     15 O15       -13.3008   -4.7934   57.5151 O.2     1  ZINC000673213454   -0.5200
     16 N16       -12.8591   -3.8375   55.5617 N.am    1  ZINC000673213454   -0.5800
     17 C17       -14.2575   -4.0337   55.1351 C.3     1  ZINC000673213454    0.1100
     18 C18       -14.7880   -2.7947   54.3989 C.3     1  ZINC000673213454   -0.1700
     19 C19       -14.2895   -1.5414   55.0897 C.3     1  ZINC000673213454    0.0800
     20 O20       -13.0636   -1.1452   54.4888 O.3     1  ZINC000673213454   -0.3800
     21 C21       -11.8775   -1.6760   54.9537 C.3     1  ZINC000673213454    0.1500
     22 H22       -11.7836   -1.4759   56.0211 H       1  ZINC000673213454    0.0600
     23 C23       -10.7227   -1.0436   54.2206 C.ar    1  ZINC000673213454   -0.0800
     24 C24       -10.2028   -1.6523   53.0936 C.ar    1  ZINC000673213454   -0.0900
     25 C25        -9.1436   -1.0721   52.4211 C.ar    1  ZINC000673213454   -0.1300
     26 C26        -8.6044    0.1168   52.8754 C.ar    1  ZINC000673213454   -0.1200
     27 C27        -9.1247    0.7260   54.0019 C.ar    1  ZINC000673213454   -0.1300
     28 C28       -10.1869    0.1480   54.6719 C.ar    1  ZINC000673213454   -0.0900
     29 C29       -11.8680   -3.1999   54.7148 C.3     1  ZINC000673213454    0.0700
     30 H30        -9.8145   -3.4270   60.5392 H       1  ZINC000673213454    0.0600
     31 H31        -9.2978   -4.7743   59.4971 H       1  ZINC000673213454    0.0600
     32 H32        -8.1028   -3.5904   60.0791 H       1  ZINC000673213454    0.0700
     33 H33        -8.1092   -1.2495   59.1495 H       1  ZINC000673213454    0.0800
     34 H34        -9.3647   -0.7744   57.9807 H       1  ZINC000673213454    0.0900
     35 H35        -9.6752    1.0546   59.3240 H       1  ZINC000673213454    0.0800
     36 H36       -11.4166    0.6659   59.5173 H       1  ZINC000673213454    0.0800
     37 H37       -10.1401    2.0203   61.4856 H       1  ZINC000673213454    0.0900
     38 H38       -11.2725    0.7004   61.9226 H       1  ZINC000673213454    0.0600
     39 H39        -9.9062   -1.7895   62.0166 H       1  ZINC000673213454    0.0600
     40 H40        -8.3410   -1.5415   61.1940 H       1  ZINC000673213454    0.0900
     41 H41       -11.4526   -2.4242   58.3393 H       1  ZINC000673213454    0.4100
     42 H42       -14.3111   -4.8955   54.4700 H       1  ZINC000673213454    0.0800
     43 H43       -14.8763   -4.2209   56.0127 H       1  ZINC000673213454    0.0900
     44 H44       -14.4346   -2.8061   53.3679 H       1  ZINC000673213454    0.0800
     45 H45       -15.8779   -2.8056   54.4089 H       1  ZINC000673213454    0.0900
     46 H46       -15.0255   -0.7452   54.9778 H       1  ZINC000673213454    0.1000
     47 H47       -14.1281   -1.7470   56.1479 H       1  ZINC000673213454    0.0500
     48 H48       -10.6241   -2.5812   52.7387 H       1  ZINC000673213454    0.1300
     49 H49        -8.7369   -1.5481   51.5410 H       1  ZINC000673213454    0.1200
     50 H50        -7.7763    0.5697   52.3505 H       1  ZINC000673213454    0.1200
     51 H51        -8.7033    1.6548   54.3571 H       1  ZINC000673213454    0.1200
     52 H52       -10.5935    0.6240   55.5520 H       1  ZINC000673213454    0.1300
     53 H53       -10.8814   -3.5984   54.9510 H       1  ZINC000673213454    0.1200
     54 H54       -12.1017   -3.4051   53.6700 H       1  ZINC000673213454    0.0800
@<TRIPOS>BOND
     1     1     2    1
     2     1    30    1
     3     1    31    1
     4     1    32    1
     5     2     3    1
     6     2     4    1
     7     2    11    1
     8     4     5    1
     9     4    33    1
    10     4    34    1
    11     5     6    1
    12     5    10    1
    13     5     7    1
    14     7     8    1
    15     7    35    1
    16     7    36    1
    17     8     9    1
    18     8    37    1
    19     8    38    1
    20     9    10    1
    21    10    39    1
    22    10    40    1
    23    11    12   am
    24    11    41    1
    25    12    13    2
    26    12    14    1
    27    14    15    2
    28    14    16   am
    29    16    29    1
    30    16    17    1
    31    17    18    1
    32    17    42    1
    33    17    43    1
    34    18    19    1
    35    18    44    1
    36    18    45    1
    37    19    20    1
    38    19    46    1
    39    19    47    1
    40    20    21    1
    41    21    22    1
    42    21    23    1
    43    21    29    1
    44    23    28   ar
    45    23    24   ar
    46    24    25   ar
    47    24    48    1
    48    25    26   ar
    49    25    49    1
    50    26    27   ar
    51    26    50    1
    52    27    28   ar
    53    27    51    1
    54    28    52    1
    55    29    53    1
    56    29    54    1
@<TRIPOS>SUBSTRUCTURE
     1 ZINC000673213454        1 TEMP              0 ****  ****    0 ROOT


##########                                Name:    ZINC001191386213
##########                DOCK_Rotatable_Bonds:                   6
##########                         Heavy_Atoms:                  29
##########                    Molecular_Weight:             392.433
##########                DOCK_Rotatable_Bonds:                   6
##########                       Formal_Charge:               -0.02
##########                     HBond_Acceptors:                   7
##########                        HBond_Donors:                   2
##########                         Heavy_Atoms:                  29
##########                          Grid_Score:          -33.308540
##########                     Grid_vdw_energy:          -32.769154
##########                      Grid_es_energy:           -0.539385
##########           Internal_energy_repulsive:           10.417396

@<TRIPOS>MOLECULE
ZINC001191386213
 50 53 1 0 0
SMALL
USER_CHARGES


@<TRIPOS>ATOM
      1 C1        -11.3747    1.9937   51.8800 C.3     1  ZINC001191386213   -0.1700
      2 C2        -12.2442    0.9390   52.5145 C.2     1  ZINC001191386213    0.5100
      3 O3        -12.7352    1.1341   53.6062 O.2     1  ZINC001191386213   -0.5200
      4 N4        -12.4762   -0.2211   51.8689 N.am    1  ZINC001191386213   -0.6800
      5 C5        -13.2836   -1.2005   52.4581 C.ar    1  ZINC001191386213    0.1400
      6 C6        -14.5493   -1.4579   51.9463 C.ar    1  ZINC001191386213   -0.1400
      7 C7        -15.3492   -2.4248   52.5254 C.ar    1  ZINC001191386213   -0.1000
      8 C8        -14.8951   -3.1398   53.6156 C.ar    1  ZINC001191386213   -0.1100
      9 C9        -13.6269   -2.8878   54.1357 C.ar    1  ZINC001191386213    0.0100
     10 C10       -13.1374   -3.6560   55.3080 C.2     1  ZINC001191386213    0.0700
     11 N11       -13.8231   -4.5426   55.9983 N.2     1  ZINC001191386213   -0.2500
     12 N12       -13.1120   -5.0275   56.9513 N.pl3   1  ZINC001191386213   -0.3800
     13 C13       -11.8682   -4.4612   56.9375 C.2     1  ZINC001191386213   -0.0400
     14 C14       -10.7597   -4.7466   57.8629 C.2     1  ZINC001191386213    0.6100
     15 O15       -10.3400   -5.8825   57.9772 O.2     1  ZINC001191386213   -0.5100
     16 N16       -10.2097   -3.7493   58.5835 N.am    1  ZINC001191386213   -0.6200
     17 C17        -9.1026   -3.8931   59.5401 C.3     1  ZINC001191386213    0.0800
     18 C18        -8.8307   -2.4971   60.1394 C.3     1  ZINC001191386213   -0.1200
     19 C19       -10.1717   -1.7520   59.9072 C.3     1  ZINC001191386213   -0.0600
     20 H20       -10.8925   -1.9922   60.6887 H       1  ZINC001191386213    0.1000
     21 C21        -9.9539   -0.2637   59.8161 C.ar    1  ZINC001191386213   -0.1100
     22 C22        -9.0608    0.2490   58.8947 C.ar    1  ZINC001191386213   -0.0900
     23 C23        -8.8606    1.6146   58.8110 C.ar    1  ZINC001191386213   -0.1300
     24 C24        -9.5532    2.4683   59.6488 C.ar    1  ZINC001191386213   -0.0900
     25 C25       -10.4468    1.9577   60.5714 C.ar    1  ZINC001191386213   -0.1500
     26 C26       -10.6529    0.5912   60.6517 C.ar    1  ZINC001191386213    0.1100
     27 F27       -11.5260    0.0909   61.5532 F       1  ZINC001191386213   -0.1400
     28 C28       -10.6144   -2.3323   58.5383 C.3     1  ZINC001191386213    0.1200
     29 C29       -11.8544   -3.5730   55.8791 C.2     1  ZINC001191386213   -0.1300
     30 C30       -12.8183   -1.9187   53.5495 C.ar    1  ZINC001191386213   -0.1000
     31 H31       -11.3031    2.8541   52.5454 H       1  ZINC001191386213    0.1000
     32 H32       -10.3790    1.5863   51.7044 H       1  ZINC001191386213    0.0900
     33 H33       -11.8130    2.3035   50.9314 H       1  ZINC001191386213    0.0900
     34 H34       -12.0836   -0.3771   50.9956 H       1  ZINC001191386213    0.4100
     35 H35       -14.9092   -0.9006   51.0941 H       1  ZINC001191386213    0.1300
     36 H36       -16.3324   -2.6213   52.1242 H       1  ZINC001191386213    0.1300
     37 H37       -15.5231   -3.8944   54.0658 H       1  ZINC001191386213    0.1300
     38 H38       -13.4130   -5.6957   57.5868 H       1  ZINC001191386213    0.4400
     39 H39        -9.3843   -4.5878   60.3314 H       1  ZINC001191386213    0.0700
     40 H40        -8.2127   -4.2552   59.0255 H       1  ZINC001191386213    0.0800
     41 H41        -8.6100   -2.5710   61.2043 H       1  ZINC001191386213    0.0900
     42 H42        -8.0173   -2.0017   59.6093 H       1  ZINC001191386213    0.0900
     43 H43        -8.5185   -0.4172   58.2401 H       1  ZINC001191386213    0.1300
     44 H44        -8.1624    2.0144   58.0906 H       1  ZINC001191386213    0.1300
     45 H45        -9.3959    3.5348   59.5827 H       1  ZINC001191386213    0.1300
     46 H46       -10.9874    2.6250   61.2264 H       1  ZINC001191386213    0.1400
     47 H47       -10.1078   -1.8135   57.7245 H       1  ZINC001191386213    0.0800
     48 H48       -11.6956   -2.2536   58.4247 H       1  ZINC001191386213    0.0900
     49 H49       -11.0355   -2.9443   55.5620 H       1  ZINC001191386213    0.1700
     50 H50       -11.8348   -1.7199   53.9491 H       1  ZINC001191386213    0.1500
@<TRIPOS>BOND
     1     1     2    1
     2     1    31    1
     3     1    32    1
     4     1    33    1
     5     2     3    2
     6     2     4   am
     7     4     5    1
     8     4    34    1
     9     5    30   ar
    10     5     6   ar
    11     6     7   ar
    12     6    35    1
    13     7     8   ar
    14     7    36    1
    15     8     9   ar
    16     8    37    1
    17     9    10    1
    18     9    30   ar
    19    10    29    1
    20    10    11    2
    21    11    12    1
    22    12    13    1
    23    12    38    1
    24    13    14    1
    25    13    29    2
    26    14    15    2
    27    14    16   am
    28    16    28    1
    29    16    17    1
    30    17    18    1
    31    17    39    1
    32    17    40    1
    33    18    19    1
    34    18    41    1
    35    18    42    1
    36    19    20    1
    37    19    21    1
    38    19    28    1
    39    21    26   ar
    40    21    22   ar
    41    22    23   ar
    42    22    43    1
    43    23    24   ar
    44    23    44    1
    45    24    25   ar
    46    24    45    1
    47    25    26   ar
    48    25    46    1
    49    26    27    1
    50    28    47    1
    51    28    48    1
    52    29    49    1
    53    30    50    1
@<TRIPOS>SUBSTRUCTURE
     1 ZINC001191386213        1 TEMP              0 ****  ****    0 ROOT


##########                                Name:    ZINC000533037883
##########                DOCK_Rotatable_Bonds:                   7
##########                         Heavy_Atoms:                  27
##########                    Molecular_Weight:             368.479
##########                DOCK_Rotatable_Bonds:                   7
##########                       Formal_Charge:          0.00999947
##########                     HBond_Acceptors:                   6
##########                        HBond_Donors:                   1
##########                         Heavy_Atoms:                  27
##########                          Grid_Score:          -33.299343
##########                     Grid_vdw_energy:          -33.269550
##########                      Grid_es_energy:           -0.029794
##########           Internal_energy_repulsive:           13.950925

@<TRIPOS>MOLECULE
ZINC000533037883
 55 58 1 0 0
SMALL
USER_CHARGES


@<TRIPOS>ATOM
      1 O1        -10.1884   -4.7060   58.1218 O.2     1  ZINC000533037883   -0.5900
      2 C2        -10.8470   -3.6890   58.2236 C.2     1  ZINC000533037883    0.7100
      3 N3        -11.6351   -3.2916   57.2051 N.am    1  ZINC000533037883   -0.7500
      4 C4        -11.6935   -4.0818   55.9728 C.3     1  ZINC000533037883    0.1400
      5 C5        -12.4397   -3.2921   54.8956 C.3     1  ZINC000533037883   -0.0500
      6 C6        -11.6197   -2.0934   54.4930 C.2     1  ZINC000533037883   -0.2300
      7 C7        -10.5996   -2.0890   53.6040 C.2     1  ZINC000533037883    0.0600
      8 N8        -10.1297   -0.8236   53.5232 N.pl3   1  ZINC000533037883   -0.3200
      9 C9         -9.0723   -0.3862   52.7134 C.ar    1  ZINC000533037883    0.1600
     10 C10        -8.7975    0.9701   52.6006 C.ar    1  ZINC000533037883   -0.1400
     11 C11        -7.7551    1.3979   51.8019 C.ar    1  ZINC000533037883   -0.0900
     12 C12        -6.9856    0.4771   51.1148 C.ar    1  ZINC000533037883   -0.1300
     13 C13        -7.2569   -0.8743   51.2252 C.ar    1  ZINC000533037883   -0.0900
     14 C14        -8.2941   -1.3086   52.0271 C.ar    1  ZINC000533037883   -0.1200
     15 N15       -10.8872   -0.0270   54.3915 N.2     1  ZINC000533037883   -0.2900
     16 C16       -11.7828   -0.7875   54.9680 C.2     1  ZINC000533037883    0.0700
     17 N17       -10.7933   -2.9621   59.3573 N.am    1  ZINC000533037883   -0.6300
     18 C18        -9.9389   -3.3824   60.4762 C.3     1  ZINC000533037883    0.1100
     19 C19        -9.0249   -2.2158   60.8639 C.3     1  ZINC000533037883   -0.1400
     20 C20        -9.8783   -0.9792   61.1548 C.3     1  ZINC000533037883   -0.1100
     21 C21       -10.6556   -0.5862   59.8965 C.3     1  ZINC000533037883   -0.0900
     22 H22        -9.9565   -0.3867   59.0844 H       1  ZINC000533037883    0.0800
     23 C23       -11.4826    0.6698   60.1785 C.3     1  ZINC000533037883   -0.1200
     24 H24       -12.3107    0.4441   60.8502 H       1  ZINC000533037883    0.0900
     25 C25       -10.5904    1.7997   60.7609 C.3     1  ZINC000533037883   -0.1500
     26 C26       -11.3640    3.0572   60.2906 C.3     1  ZINC000533037883    0.0500
     27 O27       -11.8708    2.7209   58.9894 O.3     1  ZINC000533037883   -0.3900
     28 C28       -11.9963    1.2959   58.8641 C.3     1  ZINC000533037883    0.0500
     29 C29       -11.5835   -1.7311   59.4955 C.3     1  ZINC000533037883    0.1300
     30 H30       -12.1635   -2.4824   57.2878 H       1  ZINC000533037883    0.4000
     31 H31       -10.6812   -4.2963   55.6304 H       1  ZINC000533037883    0.0700
     32 H32       -12.2177   -5.0178   56.1659 H       1  ZINC000533037883    0.0700
     33 H33       -12.6035   -3.9288   54.0261 H       1  ZINC000533037883    0.0800
     34 H34       -13.4004   -2.9597   55.2886 H       1  ZINC000533037883    0.0800
     35 H35       -10.2272   -2.9429   53.0576 H       1  ZINC000533037883    0.1800
     36 H36        -9.3985    1.6898   53.1365 H       1  ZINC000533037883    0.1300
     37 H37        -7.5409    2.4529   51.7138 H       1  ZINC000533037883    0.1300
     38 H38        -6.1715    0.8142   50.4904 H       1  ZINC000533037883    0.1300
     39 H39        -6.6542   -1.5911   50.6873 H       1  ZINC000533037883    0.1300
     40 H40        -8.5052   -2.3643   52.1132 H       1  ZINC000533037883    0.1400
     41 H41       -12.5173   -0.4639   55.6906 H       1  ZINC000533037883    0.1900
     42 H42       -10.5611   -3.6577   61.3278 H       1  ZINC000533037883    0.0700
     43 H43        -9.3330   -4.2361   60.1727 H       1  ZINC000533037883    0.0800
     44 H44        -8.4539   -2.4811   61.7537 H       1  ZINC000533037883    0.0800
     45 H45        -8.3411   -2.0009   60.0428 H       1  ZINC000533037883    0.0700
     46 H46       -10.5789   -1.2025   61.9594 H       1  ZINC000533037883    0.0700
     47 H47        -9.2320   -0.1543   61.4548 H       1  ZINC000533037883    0.0700
     48 H48       -10.5504    1.7472   61.8489 H       1  ZINC000533037883    0.0800
     49 H49        -9.5892    1.7707   60.3310 H       1  ZINC000533037883    0.0800
     50 H50       -12.1863    3.2727   60.9728 H       1  ZINC000533037883    0.0600
     51 H51       -10.6915    3.9126   60.2251 H       1  ZINC000533037883    0.0900
     52 H52       -11.3915    0.9435   58.0286 H       1  ZINC000533037883    0.0700
     53 H53       -13.0410    1.0293   58.7042 H       1  ZINC000533037883    0.0700
     54 H54       -12.0649   -1.4959   58.5462 H       1  ZINC000533037883    0.1000
     55 H55       -12.3409   -1.8746   60.2660 H       1  ZINC000533037883    0.0700
@<TRIPOS>BOND
     1     1     2    2
     2     2     3   am
     3     2    17   am
     4     3     4    1
     5     3    30    1
     6     4     5    1
     7     4    31    1
     8     4    32    1
     9     5     6    1
    10     5    33    1
    11     5    34    1
    12     6    16    1
    13     6     7    2
    14     7     8    1
    15     7    35    1
    16     8     9    1
    17     8    15    1
    18     9    14   ar
    19     9    10   ar
    20    10    11   ar
    21    10    36    1
    22    11    12   ar
    23    11    37    1
    24    12    13   ar
    25    12    38    1
    26    13    14   ar
    27    13    39    1
    28    14    40    1
    29    15    16    2
    30    16    41    1
    31    17    29    1
    32    17    18    1
    33    18    19    1
    34    18    42    1
    35    18    43    1
    36    19    20    1
    37    19    44    1
    38    19    45    1
    39    20    21    1
    40    20    46    1
    41    20    47    1
    42    21    22    1
    43    21    23    1
    44    21    29    1
    45    23    24    1
    46    23    28    1
    47    23    25    1
    48    25    26    1
    49    25    48    1
    50    25    49    1
    51    26    27    1
    52    26    50    1
    53    26    51    1
    54    27    28    1
    55    28    52    1
    56    28    53    1
    57    29    54    1
    58    29    55    1
@<TRIPOS>SUBSTRUCTURE
     1 ZINC000533037883        1 TEMP              0 ****  ****    0 ROOT


##########                                Name:    ZINC000979274057
##########                DOCK_Rotatable_Bonds:                   6
##########                         Heavy_Atoms:                  24
##########                    Molecular_Weight:              330.39
##########                DOCK_Rotatable_Bonds:                   6
##########                       Formal_Charge:          0.00999946
##########                     HBond_Acceptors:                   8
##########                        HBond_Donors:                   1
##########                         Heavy_Atoms:                  24
##########                          Grid_Score:          -33.272732
##########                     Grid_vdw_energy:          -31.214840
##########                      Grid_es_energy:           -2.057892
##########           Internal_energy_repulsive:           10.053774

@<TRIPOS>MOLECULE
ZINC000979274057
 46 48 1 0 0
SMALL
USER_CHARGES


@<TRIPOS>ATOM
      1 C1        -11.1316    1.3010   59.2134 C.3     1  ZINC000979274057   -0.1400
      2 C2        -11.7847   -0.0652   59.4319 C.3     1  ZINC000979274057    0.1000
      3 H3        -12.6129   -0.1878   58.7340 H       1  ZINC000979274057    0.0600
      4 N4        -12.2880   -0.1528   60.8092 N.3     1  ZINC000979274057   -0.6700
      5 C5        -13.6506    0.3872   60.9071 C.3     1  ZINC000979274057    0.1300
      6 C6        -14.6363   -0.6462   60.4256 C.ar    1  ZINC000979274057    0.3200
      7 N7        -15.6684   -0.2602   59.7025 N.ar    1  ZINC000979274057   -0.5200
      8 C8        -16.5544   -1.1390   59.2623 C.ar    1  ZINC000979274057    0.1500
      9 C9        -16.3850   -2.4796   59.5712 C.ar    1  ZINC000979274057   -0.2300
     10 C10       -15.2875   -2.8468   60.3337 C.ar    1  ZINC000979274057    0.1500
     11 N11       -14.4402   -1.9125   60.7342 N.ar    1  ZINC000979274057   -0.5000
     12 C12       -10.7511   -1.1682   59.1955 C.3     1  ZINC000979274057    0.0800
     13 H13       -10.1608   -0.9304   58.3106 H       1  ZINC000979274057    0.0700
     14 C14       -11.4690   -2.5066   58.9876 C.3     1  ZINC000979274057    0.0800
     15 N15       -10.4576   -3.5748   58.9503 N.am    1  ZINC000979274057   -0.6000
     16 C16       -10.4389   -4.4780   57.9501 C.2     1  ZINC000979274057    0.6100
     17 O17        -9.5947   -5.3534   57.9370 O.2     1  ZINC000979274057   -0.5400
     18 C18       -11.4411   -4.4051   56.8728 C.2     1  ZINC000979274057   -0.0600
     19 C19       -11.2341   -3.9342   55.6094 C.2     1  ZINC000979274057    0.0400
     20 N20       -12.4111   -4.0476   54.9501 N.pl3   1  ZINC000979274057   -0.4600
     21 C21       -12.6625   -3.6635   53.5589 C.3     1  ZINC000979274057    0.0700
     22 C22       -13.3171   -4.5818   55.8098 C.2     1  ZINC000979274057    0.1900
     23 N23       -12.7375   -4.7997   56.9549 N.2     1  ZINC000979274057   -0.4600
     24 C24        -9.4668   -3.6277   60.0371 C.3     1  ZINC000979274057    0.0500
     25 C25        -8.8465   -2.2345   60.1938 C.3     1  ZINC000979274057    0.0500
     26 O26        -9.8895   -1.2667   60.3321 O.3     1  ZINC000979274057   -0.3600
     27 H27       -11.8680    2.0868   59.3818 H       1  ZINC000979274057    0.0600
     28 H28       -10.3034    1.4237   59.9114 H       1  ZINC000979274057    0.0700
     29 H29       -10.7581    1.3660   58.1915 H       1  ZINC000979274057    0.0600
     30 H30       -12.2501   -1.1024   61.1483 H       1  ZINC000979274057    0.3500
     31 H31       -13.8675    0.6402   61.9449 H       1  ZINC000979274057    0.1000
     32 H32       -13.7320    1.2821   60.2903 H       1  ZINC000979274057    0.0600
     33 H33       -17.3981   -0.8161   58.6705 H       1  ZINC000979274057    0.1700
     34 H34       -17.0916   -3.2200   59.2263 H       1  ZINC000979274057    0.1500
     35 H35       -15.1237   -3.8820   60.5940 H       1  ZINC000979274057    0.1700
     36 H36       -12.1603   -2.6843   59.8115 H       1  ZINC000979274057    0.0700
     37 H37       -12.0169   -2.4869   58.0457 H       1  ZINC000979274057    0.1000
     38 H38       -10.3087   -3.5451   55.2113 H       1  ZINC000979274057    0.1900
     39 H39       -12.4611   -4.5124   52.9054 H       1  ZINC000979274057    0.0800
     40 H40       -13.7032   -3.3588   53.4484 H       1  ZINC000979274057    0.0900
     41 H41       -12.0101   -2.8335   53.2875 H       1  ZINC000979274057    0.0900
     42 H42       -14.3504   -4.7952   55.5792 H       1  ZINC000979274057    0.2100
     43 H43        -9.9566   -3.9182   60.9666 H       1  ZINC000979274057    0.0700
     44 H44        -8.6891   -4.3502   59.7901 H       1  ZINC000979274057    0.1500
     45 H45        -8.2127   -2.2160   61.0805 H       1  ZINC000979274057    0.1100
     46 H46        -8.2485   -2.0011   59.3130 H       1  ZINC000979274057    0.0500
@<TRIPOS>BOND
     1     1     2    1
     2     1    27    1
     3     1    28    1
     4     1    29    1
     5     2     3    1
     6     2     4    1
     7     2    12    1
     8     4     5    1
     9     4    30    1
    10     5     6    1
    11     5    31    1
    12     5    32    1
    13     6    11   ar
    14     6     7   ar
    15     7     8   ar
    16     8     9   ar
    17     8    33    1
    18     9    10   ar
    19     9    34    1
    20    10    11   ar
    21    10    35    1
    22    12    13    1
    23    12    26    1
    24    12    14    1
    25    14    15    1
    26    14    36    1
    27    14    37    1
    28    15    16   am
    29    15    24    1
    30    16    17    2
    31    16    18    1
    32    18    23    1
    33    18    19    2
    34    19    20    1
    35    19    38    1
    36    20    21    1
    37    20    22    1
    38    21    39    1
    39    21    40    1
    40    21    41    1
    41    22    23    2
    42    22    42    1
    43    24    25    1
    44    24    43    1
    45    24    44    1
    46    25    26    1
    47    25    45    1
    48    25    46    1
@<TRIPOS>SUBSTRUCTURE
     1 ZINC000979274057        1 TEMP              0 ****  ****    0 ROOT


##########                                Name:    ZINC001757264545
##########                DOCK_Rotatable_Bonds:                  11
##########                         Heavy_Atoms:                  25
##########                    Molecular_Weight:             344.497
##########                DOCK_Rotatable_Bonds:                  11
##########                       Formal_Charge:          0.00999946
##########                     HBond_Acceptors:                   4
##########                        HBond_Donors:                   2
##########                         Heavy_Atoms:                  25
##########                          Grid_Score:          -33.270897
##########                     Grid_vdw_energy:          -31.591908
##########                      Grid_es_energy:           -1.678990
##########           Internal_energy_repulsive:            8.742101

@<TRIPOS>MOLECULE
ZINC001757264545
 57 57 1 0 0
SMALL
USER_CHARGES


@<TRIPOS>ATOM
      1 C1        -12.4717   -4.4567   54.2201 C.1     1  ZINC001757264545   -0.2100
      2 C2        -11.9737   -3.7184   54.9852 C.1     1  ZINC001757264545   -0.1900
      3 C3        -11.3493   -2.7928   55.9445 C.3     1  ZINC001757264545   -0.0100
      4 C4        -10.8733   -3.5741   57.1709 C.3     1  ZINC001757264545   -0.1200
      5 C5        -10.2436   -2.6090   58.1774 C.3     1  ZINC001757264545   -0.1200
      6 C6         -9.9247   -3.3590   59.4723 C.3     1  ZINC001757264545   -0.1000
      7 C7         -8.7822   -2.6512   60.2035 C.3     1  ZINC001757264545   -0.1400
      8 C8         -9.2416   -1.2882   60.6531 C.2     1  ZINC001757264545    0.5100
      9 O9         -9.0600   -0.3221   59.9426 O.2     1  ZINC001757264545   -0.5400
     10 N10        -9.8543   -1.1426   61.8447 N.am    1  ZINC001757264545   -0.7300
     11 C11       -10.3024    0.1821   62.2809 C.3     1  ZINC001757264545    0.1400
     12 H12       -10.1437    0.9021   61.4781 H       1  ZINC001757264545    0.1000
     13 C13        -9.5047    0.6099   63.5144 C.3     1  ZINC001757264545   -0.1300
     14 C14        -9.9727    1.9934   63.9701 C.3     1  ZINC001757264545   -0.1200
     15 C15       -11.4614    1.9388   64.3192 C.3     1  ZINC001757264545   -0.1200
     16 C16       -12.2591    1.5111   63.0857 C.3     1  ZINC001757264545   -0.1300
     17 C17       -11.7910    0.1275   62.6302 C.3     1  ZINC001757264545    0.1400
     18 H18       -11.9497   -0.5923   63.4330 H       1  ZINC001757264545    0.1000
     19 N19       -12.5549   -0.2820   61.4491 N.am    1  ZINC001757264545   -0.7200
     20 C20       -13.5997   -1.1233   61.5806 C.2     1  ZINC001757264545    0.6400
     21 O21       -13.9092   -1.5412   62.6799 O.2     1  ZINC001757264545   -0.5200
     22 C22       -14.3453   -1.5249   60.4259 C.1     1  ZINC001757264545   -0.2300
     23 C23       -14.9566   -1.8542   59.4792 C.1     1  ZINC001757264545   -0.0500
     24 C24       -15.7231   -2.2672   58.2922 C.3     1  ZINC001757264545    0.0300
     25 C25       -15.5767   -1.2088   57.1971 C.3     1  ZINC001757264545   -0.1400
     26 C26       -15.1894   -3.6069   57.7814 C.3     1  ZINC001757264545   -0.1400
     27 C27       -17.1997   -2.4149   58.6647 C.3     1  ZINC001757264545   -0.1400
     28 H28       -12.9170   -5.1169   53.5359 H       1  ZINC001757264545    0.2200
     29 H29       -12.0776   -2.0424   56.2520 H       1  ZINC001757264545    0.0900
     30 H30       -10.4979   -2.3014   55.4737 H       1  ZINC001757264545    0.0900
     31 H31       -10.1337   -4.3142   56.8657 H       1  ZINC001757264545    0.0700
     32 H32       -11.7223   -4.0778   57.6328 H       1  ZINC001757264545    0.0700
     33 H33       -10.9412   -1.7987   58.3893 H       1  ZINC001757264545    0.0700
     34 H34        -9.3246   -2.1974   57.7601 H       1  ZINC001757264545    0.0700
     35 H35        -9.6273   -4.3808   59.2365 H       1  ZINC001757264545    0.0700
     36 H36       -10.8087   -3.3758   60.1096 H       1  ZINC001757264545    0.0700
     37 H37        -7.9313   -2.5441   59.5308 H       1  ZINC001757264545    0.0900
     38 H38        -8.4869   -3.2399   61.0720 H       1  ZINC001757264545    0.0900
     39 H39        -9.9984   -1.9150   62.4135 H       1  ZINC001757264545    0.4000
     40 H40        -9.6633   -0.1100   64.3174 H       1  ZINC001757264545    0.0700
     41 H41        -8.4441    0.6488   63.2657 H       1  ZINC001757264545    0.0800
     42 H42        -9.4044    2.2982   64.8488 H       1  ZINC001757264545    0.0700
     43 H43        -9.8141    2.7133   63.1671 H       1  ZINC001757264545    0.0700
     44 H44       -11.7948    2.9245   64.6438 H       1  ZINC001757264545    0.0700
     45 H45       -11.6200    1.2190   65.1221 H       1  ZINC001757264545    0.0700
     46 H46       -12.1005    2.2310   62.2828 H       1  ZINC001757264545    0.0700
     47 H47       -13.3197    1.4722   63.3345 H       1  ZINC001757264545    0.0800
     48 H48       -12.3088    0.0522   60.5723 H       1  ZINC001757264545    0.4000
     49 H49       -14.5247   -1.1036   56.9318 H       1  ZINC001757264545    0.0600
     50 H50       -16.1443   -1.5146   56.3182 H       1  ZINC001757264545    0.0700
     51 H51       -15.9569   -0.2543   57.5612 H       1  ZINC001757264545    0.0600
     52 H52       -15.2936   -4.3609   58.5615 H       1  ZINC001757264545    0.0600
     53 H53       -15.7569   -3.9128   56.9024 H       1  ZINC001757264545    0.0700
     54 H54       -14.1374   -3.5017   57.5160 H       1  ZINC001757264545    0.0600
     55 H55       -17.5798   -1.4604   59.0287 H       1  ZINC001757264545    0.0600
     56 H56       -17.7672   -2.7208   57.7858 H       1  ZINC001757264545    0.0700
     57 H57       -17.3039   -3.1689   59.4450 H       1  ZINC001757264545    0.0600
@<TRIPOS>BOND
     1     1     2    3
     2     1    28    1
     3     2     3    1
     4     3     4    1
     5     3    29    1
     6     3    30    1
     7     4     5    1
     8     4    31    1
     9     4    32    1
    10     5     6    1
    11     5    33    1
    12     5    34    1
    13     6     7    1
    14     6    35    1
    15     6    36    1
    16     7     8    1
    17     7    37    1
    18     7    38    1
    19     8     9    2
    20     8    10   am
    21    10    11    1
    22    10    39    1
    23    11    12    1
    24    11    17    1
    25    11    13    1
    26    13    14    1
    27    13    40    1
    28    13    41    1
    29    14    15    1
    30    14    42    1
    31    14    43    1
    32    15    16    1
    33    15    44    1
    34    15    45    1
    35    16    17    1
    36    16    46    1
    37    16    47    1
    38    17    18    1
    39    17    19    1
    40    19    20   am
    41    19    48    1
    42    20    21    2
    43    20    22    1
    44    22    23    3
    45    23    24    1
    46    24    25    1
    47    24    26    1
    48    24    27    1
    49    25    49    1
    50    25    50    1
    51    25    51    1
    52    26    52    1
    53    26    53    1
    54    26    54    1
    55    27    55    1
    56    27    56    1
    57    27    57    1
@<TRIPOS>SUBSTRUCTURE
     1 ZINC001757264545        1 TEMP              0 ****  ****    0 ROOT


##########                                Name:    ZINC000192150625
##########                DOCK_Rotatable_Bonds:                   5
##########                         Heavy_Atoms:                  28
##########                    Molecular_Weight:             377.443
##########                DOCK_Rotatable_Bonds:                   5
##########                       Formal_Charge:           0.0199997
##########                     HBond_Acceptors:                   6
##########                        HBond_Donors:                   1
##########                         Heavy_Atoms:                  28
##########                          Grid_Score:          -33.252769
##########                     Grid_vdw_energy:          -32.832237
##########                      Grid_es_energy:           -0.420532
##########           Internal_energy_repulsive:           13.840977

@<TRIPOS>MOLECULE
ZINC000192150625
 51 54 1 0 0
SMALL
USER_CHARGES


@<TRIPOS>ATOM
      1 C1         -8.5143    1.1918   65.3087 C.3     1  ZINC000192150625   -0.0800
      2 C2         -9.6999    0.8561   64.4411 C.2     1  ZINC000192150625    0.0400
      3 C3         -9.6622    0.0560   63.3671 C.2     1  ZINC000192150625   -0.1800
      4 C4         -8.4568   -0.6590   62.8131 C.3     1  ZINC000192150625   -0.0800
      5 C5        -11.0312    0.0155   62.8385 C.ar    1  ZINC000192150625   -0.1000
      6 C6        -11.6388   -0.6234   61.7596 C.ar    1  ZINC000192150625   -0.0700
      7 C7        -12.9929   -0.4440   61.5345 C.ar    1  ZINC000192150625    0.1200
      8 N8        -13.6116   -1.0816   60.4541 N.am    1  ZINC000192150625   -0.6400
      9 C9        -14.0756   -2.3397   60.5899 C.2     1  ZINC000192150625    0.5100
     10 O10       -13.9566   -2.9194   61.6497 O.2     1  ZINC000192150625   -0.4900
     11 C11       -14.7362   -3.0206   59.4365 C.2     1  ZINC000192150625    0.5100
     12 O12       -15.9422   -3.1556   59.4212 O.2     1  ZINC000192150625   -0.5200
     13 N13       -13.9931   -3.4849   58.4124 N.am    1  ZINC000192150625   -0.5800
     14 C14       -14.6292   -4.1514   57.2679 C.3     1  ZINC000192150625    0.0500
     15 C15       -14.1741   -3.4595   55.9791 C.3     1  ZINC000192150625   -0.1200
     16 C16       -12.6447   -3.4428   55.9264 C.3     1  ZINC000192150625   -0.0500
     17 C17       -12.1936   -2.7930   54.6436 C.ar    1  ZINC000192150625   -0.0300
     18 C18       -11.9067   -3.5578   53.5234 C.ar    1  ZINC000192150625   -0.1700
     19 C19       -11.4958   -2.9269   52.3644 C.ar    1  ZINC000192150625    0.1000
     20 N20       -11.3751   -1.6146   52.3172 N.ar    1  ZINC000192150625   -0.4900
     21 C21       -11.6392   -0.8559   53.3630 C.ar    1  ZINC000192150625    0.1000
     22 C22       -12.0611   -1.4158   54.5540 C.ar    1  ZINC000192150625   -0.1700
     23 C23       -12.1002   -2.6515   57.1177 C.3     1  ZINC000192150625   -0.1200
     24 C24       -12.5322   -3.3288   58.4165 C.3     1  ZINC000192150625    0.1100
     25 C25       -13.7406    0.3706   62.3826 C.ar    1  ZINC000192150625   -0.1100
     26 C26       -13.1457    1.0048   63.4507 C.ar    1  ZINC000192150625   -0.0800
     27 C27       -11.7879    0.8362   63.6920 C.ar    1  ZINC000192150625    0.0500
     28 O28       -10.9496    1.3115   64.6363 O.3     1  ZINC000192150625   -0.1900
     29 H29        -8.8290    1.8574   66.1125 H       1  ZINC000192150625    0.0800
     30 H30        -8.1049    0.2759   65.7347 H       1  ZINC000192150625    0.0900
     31 H31        -7.7513    1.6850   64.7064 H       1  ZINC000192150625    0.0900
     32 H32        -8.3727   -1.6421   63.2767 H       1  ZINC000192150625    0.0700
     33 H33        -8.5662   -0.7740   61.7348 H       1  ZINC000192150625    0.0700
     34 H34        -7.5596   -0.0783   63.0275 H       1  ZINC000192150625    0.0700
     35 H35       -11.0573   -1.2540   61.1033 H       1  ZINC000192150625    0.1400
     36 H36       -13.7068   -0.6184   59.6072 H       1  ZINC000192150625    0.4300
     37 H37       -14.3320   -5.1999   57.2442 H       1  ZINC000192150625    0.0700
     38 H38       -15.7129   -4.0787   57.3586 H       1  ZINC000192150625    0.1600
     39 H39       -14.5620   -4.0032   55.1177 H       1  ZINC000192150625    0.0800
     40 H40       -14.5499   -2.4364   55.9633 H       1  ZINC000192150625    0.0700
     41 H41       -12.2688   -4.4651   55.9674 H       1  ZINC000192150625    0.0900
     42 H42       -12.0030   -4.6330   53.5560 H       1  ZINC000192150625    0.1300
     43 H43       -11.2704   -3.5155   51.4874 H       1  ZINC000192150625    0.1600
     44 H44       -11.5286    0.2156   53.2866 H       1  ZINC000192150625    0.1600
     45 H45       -12.2762   -0.7891   55.4070 H       1  ZINC000192150625    0.1300
     46 H46       -11.0117   -2.6202   57.0668 H       1  ZINC000192150625    0.0800
     47 H47       -12.4954   -1.6359   57.0912 H       1  ZINC000192150625    0.0700
     48 H48       -12.2313   -2.7157   59.2661 H       1  ZINC000192150625    0.1000
     49 H49       -12.0659   -4.3113   58.4889 H       1  ZINC000192150625    0.0800
     50 H50       -14.7965    0.5061   62.2003 H       1  ZINC000192150625    0.1400
     51 H51       -13.7351    1.6337   64.1014 H       1  ZINC000192150625    0.1400
@<TRIPOS>BOND
     1     1     2    1
     2     1    29    1
     3     1    30    1
     4     1    31    1
     5     2    28    1
     6     2     3    2
     7     3     4    1
     8     3     5    1
     9     4    32    1
    10     4    33    1
    11     4    34    1
    12     5    27   ar
    13     5     6   ar
    14     6     7   ar
    15     6    35    1
    16     7     8    1
    17     7    25   ar
    18     8     9   am
    19     8    36    1
    20     9    10    2
    21     9    11    1
    22    11    12    2
    23    11    13   am
    24    13    24    1
    25    13    14    1
    26    14    15    1
    27    14    37    1
    28    14    38    1
    29    15    16    1
    30    15    39    1
    31    15    40    1
    32    16    17    1
    33    16    23    1
    34    16    41    1
    35    17    22   ar
    36    17    18   ar
    37    18    19   ar
    38    18    42    1
    39    19    20   ar
    40    19    43    1
    41    20    21   ar
    42    21    22   ar
    43    21    44    1
    44    22    45    1
    45    23    24    1
    46    23    46    1
    47    23    47    1
    48    24    48    1
    49    24    49    1
    50    25    26   ar
    51    25    50    1
    52    26    27   ar
    53    26    51    1
    54    27    28    1
@<TRIPOS>SUBSTRUCTURE
     1 ZINC000192150625        1 TEMP              0 ****  ****    0 ROOT


##########                                Name:    ZINC000504638019
##########                DOCK_Rotatable_Bonds:                   8
##########                         Heavy_Atoms:                  24
##########                    Molecular_Weight:             328.454
##########                DOCK_Rotatable_Bonds:                   8
##########                       Formal_Charge:        -1.49012e-08
##########                     HBond_Acceptors:                   4
##########                        HBond_Donors:                   1
##########                         Heavy_Atoms:                  24
##########                          Grid_Score:          -33.252357
##########                     Grid_vdw_energy:          -32.888344
##########                      Grid_es_energy:           -0.364012
##########           Internal_energy_repulsive:           18.607538

@<TRIPOS>MOLECULE
ZINC000504638019
 52 53 1 0 0
SMALL
USER_CHARGES


@<TRIPOS>ATOM
      1 C1         -8.7163    0.5211   64.4237 C.3     1  ZINC000504638019   -0.1200
      2 C2         -9.2056    0.0217   63.0887 C.ar    1  ZINC000504638019   -0.0900
      3 C3         -8.6299   -1.0969   62.5159 C.ar    1  ZINC000504638019   -0.1200
      4 C4         -9.0787   -1.5550   61.2914 C.ar    1  ZINC000504638019   -0.1100
      5 C5        -10.1035   -0.8947   60.6398 C.ar    1  ZINC000504638019   -0.0900
      6 C6        -10.5925   -1.3938   59.3045 C.3     1  ZINC000504638019   -0.0600
      7 H7        -11.5106   -0.8716   59.0354 H       1  ZINC000504638019    0.0900
      8 C8         -9.5254   -1.1308   58.2399 C.3     1  ZINC000504638019   -0.1500
      9 C9        -10.8669   -2.8964   59.3912 C.3     1  ZINC000504638019    0.1300
     10 N10       -12.0591   -3.2213   58.6041 N.am    1  ZINC000504638019   -0.7000
     11 C11       -11.9433   -3.9453   57.4732 C.2     1  ZINC000504638019    0.5100
     12 O12       -10.8517   -4.3293   57.1077 O.2     1  ZINC000504638019   -0.5100
     13 C13       -13.1593   -4.2752   56.6694 C.2     1  ZINC000504638019    0.5100
     14 O14       -13.6896   -5.3602   56.7886 O.2     1  ZINC000504638019   -0.5200
     15 N15       -13.6669   -3.3677   55.8119 N.am    1  ZINC000504638019   -0.5800
     16 C16       -14.8588   -3.6911   55.0239 C.3     1  ZINC000504638019    0.0600
     17 C17       -13.0268   -2.0578   55.6680 C.3     1  ZINC000504638019    0.1100
     18 C18       -11.8711   -2.1618   54.6708 C.3     1  ZINC000504638019   -0.1000
     19 H19       -11.1205   -2.8548   55.0509 H       1  ZINC000504638019    0.0800
     20 C20       -11.2413   -0.7821   54.4676 C.3     1  ZINC000504638019   -0.0800
     21 C21       -10.2906   -0.8137   53.3068 C.2     1  ZINC000504638019   -0.1500
     22 C22       -10.2780   -1.7420   52.4048 C.2     1  ZINC000504638019   -0.1600
     23 C23       -11.2056   -2.9216   52.3992 C.3     1  ZINC000504638019   -0.0900
     24 C24       -12.3986   -2.6629   53.3204 C.3     1  ZINC000504638019   -0.1100
     25 C25       -10.6802    0.2231   61.2132 C.ar    1  ZINC000504638019   -0.1100
     26 C26       -10.2340    0.6789   62.4396 C.ar    1  ZINC000504638019   -0.1200
     27 H27        -9.2827    0.0403   65.2213 H       1  ZINC000504638019    0.0700
     28 H28        -7.6584    0.2831   64.5352 H       1  ZINC000504638019    0.0700
     29 H29        -8.8538    1.6008   64.4804 H       1  ZINC000504638019    0.0700
     30 H30        -7.8292   -1.6128   63.0250 H       1  ZINC000504638019    0.1200
     31 H31        -8.6284   -2.4285   60.8435 H       1  ZINC000504638019    0.1200
     32 H32        -9.8790   -1.4919   57.2742 H       1  ZINC000504638019    0.0600
     33 H33        -9.3298   -0.0603   58.1782 H       1  ZINC000504638019    0.0600
     34 H34        -8.6073   -1.6530   58.5091 H       1  ZINC000504638019    0.0600
     35 H35       -10.0113   -3.4454   58.9980 H       1  ZINC000504638019    0.0800
     36 H36       -11.0312   -3.1764   60.4319 H       1  ZINC000504638019    0.0800
     37 H37       -12.9318   -2.9154   58.8970 H       1  ZINC000504638019    0.4100
     38 H38       -15.7513   -3.4970   55.6187 H       1  ZINC000504638019    0.0600
     39 H39       -14.8793   -3.0736   54.1259 H       1  ZINC000504638019    0.0700
     40 H40       -14.8327   -4.7434   54.7408 H       1  ZINC000504638019    0.1100
     41 H41       -13.7567   -1.3348   55.3040 H       1  ZINC000504638019    0.0900
     42 H42       -12.6440   -1.7322   56.6351 H       1  ZINC000504638019    0.0900
     43 H43       -12.0265   -0.0518   54.2717 H       1  ZINC000504638019    0.0800
     44 H44       -10.7008   -0.4952   55.3695 H       1  ZINC000504638019    0.0600
     45 H45        -9.5725   -0.0119   53.2184 H       1  ZINC000504638019    0.1000
     46 H46        -9.5552   -1.6624   51.6063 H       1  ZINC000504638019    0.1000
     47 H47       -11.5628   -3.0956   51.3841 H       1  ZINC000504638019    0.0700
     48 H48       -10.6696   -3.8044   52.7476 H       1  ZINC000504638019    0.0700
     49 H49       -12.9603   -3.5866   53.4607 H       1  ZINC000504638019    0.0700
     50 H50       -13.0431   -1.9019   52.8804 H       1  ZINC000504638019    0.0700
     51 H51       -11.4812    0.7388   60.7044 H       1  ZINC000504638019    0.1200
     52 H52       -10.6846    1.5522   62.8876 H       1  ZINC000504638019    0.1200
@<TRIPOS>BOND
     1     1     2    1
     2     1    27    1
     3     1    28    1
     4     1    29    1
     5     2    26   ar
     6     2     3   ar
     7     3     4   ar
     8     3    30    1
     9     4     5   ar
    10     4    31    1
    11     5     6    1
    12     5    25   ar
    13     6     7    1
    14     6     8    1
    15     6     9    1
    16     8    32    1
    17     8    33    1
    18     8    34    1
    19     9    10    1
    20     9    35    1
    21     9    36    1
    22    10    11   am
    23    10    37    1
    24    11    12    2
    25    11    13    1
    26    13    14    2
    27    13    15   am
    28    15    16    1
    29    15    17    1
    30    16    38    1
    31    16    39    1
    32    16    40    1
    33    17    18    1
    34    17    41    1
    35    17    42    1
    36    18    19    1
    37    18    24    1
    38    18    20    1
    39    20    21    1
    40    20    43    1
    41    20    44    1
    42    21    22    2
    43    21    45    1
    44    22    23    1
    45    22    46    1
    46    23    24    1
    47    23    47    1
    48    23    48    1
    49    24    49    1
    50    24    50    1
    51    25    26   ar
    52    25    51    1
    53    26    52    1
@<TRIPOS>SUBSTRUCTURE
     1 ZINC000504638019        1 TEMP              0 ****  ****    0 ROOT


##########                                Name:    ZINC001085711660
##########                DOCK_Rotatable_Bonds:                   8
##########                         Heavy_Atoms:                  25
##########                    Molecular_Weight:             347.414
##########                DOCK_Rotatable_Bonds:                   8
##########                       Formal_Charge:         -0.00999993
##########                     HBond_Acceptors:                   7
##########                        HBond_Donors:                   0
##########                         Heavy_Atoms:                  25
##########                          Grid_Score:          -33.246799
##########                     Grid_vdw_energy:          -32.941734
##########                      Grid_es_energy:           -0.305066
##########           Internal_energy_repulsive:           14.840178

@<TRIPOS>MOLECULE
ZINC001085711660
 50 52 1 0 0
SMALL
USER_CHARGES


@<TRIPOS>ATOM
      1 C1         -9.2690    0.5033   64.5405 C.3     1  ZINC001085711660    0.0300
      2 O2         -9.1489   -0.1885   63.2960 O.3     1  ZINC001085711660   -0.3800
      3 C3         -9.9831    0.3318   62.2589 C.3     1  ZINC001085711660    0.1400
      4 C4         -9.7224   -0.4205   60.9795 C.2     1  ZINC001085711660    0.0100
      5 C5         -9.2240    0.1112   59.8415 C.2     1  ZINC001085711660   -0.1900
      6 C6         -9.1402   -0.9283   58.9019 C.2     1  ZINC001085711660   -0.1200
      7 C7         -9.5974   -2.0557   59.5220 C.2     1  ZINC001085711660   -0.0700
      8 C8         -9.6927   -3.3906   58.9223 C.2     1  ZINC001085711660    0.6000
      9 O9         -8.8105   -4.2073   59.1119 O.2     1  ZINC001085711660   -0.5200
     10 N10       -10.7572   -3.7130   58.1611 N.am    1  ZINC001085711660   -0.6000
     11 C11       -10.8524   -5.0465   57.5620 C.3     1  ZINC001085711660    0.0700
     12 C12       -11.8191   -2.7298   57.9328 C.3     1  ZINC001085711660    0.1300
     13 C13       -13.1306   -3.4571   57.6294 C.3     1  ZINC001085711660    0.0000
     14 H14       -13.2373   -4.3854   58.1905 H       1  ZINC001085711660    0.1000
     15 C15       -13.4093   -3.6146   56.1280 C.3     1  ZINC001085711660   -0.1400
     16 C16       -14.8569   -3.3134   56.5407 C.3     1  ZINC001085711660    0.0100
     17 N17       -14.3174   -2.5848   57.7055 N.3     1  ZINC001085711660   -0.4500
     18 C18       -15.1038   -2.8675   58.9136 C.3     1  ZINC001085711660    0.1500
     19 H19       -14.9986   -3.9198   59.1777 H       1  ZINC001085711660    0.1000
     20 C20       -16.5775   -2.5531   58.6481 C.3     1  ZINC001085711660   -0.1900
     21 C21       -14.6045   -2.0123   60.0495 C.2     1  ZINC001085711660    0.2000
     22 N22       -14.0643   -2.4525   61.1500 N.2     1  ZINC001085711660   -0.4700
     23 C23       -13.7441   -1.4005   61.9240 C.2     1  ZINC001085711660   -0.0400
     24 C24       -14.1041   -0.2859   61.2664 C.2     1  ZINC001085711660   -0.0500
     25 C25       -13.9371    1.1319   61.7494 C.3     1  ZINC001085711660   -0.0700
     26 O26       -14.6377   -0.6737   60.0914 O.3     1  ZINC001085711660   -0.2000
     27 O27        -9.9412   -1.7274   60.7846 O.3     1  ZINC001085711660   -0.1500
     28 H28        -8.9958    1.5494   64.4025 H       1  ZINC001085711660    0.0500
     29 H29       -10.2984    0.4401   64.8936 H       1  ZINC001085711660    0.0500
     30 H30        -8.6045    0.0480   65.2749 H       1  ZINC001085711660    0.0900
     31 H31       -11.0294    0.2161   62.5417 H       1  ZINC001085711660    0.0900
     32 H32        -9.7617    1.3887   62.1105 H       1  ZINC001085711660    0.0700
     33 H33        -8.9431    1.1421   59.6845 H       1  ZINC001085711660    0.1600
     34 H34        -8.7833   -0.8513   57.8856 H       1  ZINC001085711660    0.1600
     35 H35       -11.2706   -5.7425   58.2892 H       1  ZINC001085711660    0.0600
     36 H36       -11.4984   -5.0055   56.6851 H       1  ZINC001085711660    0.0900
     37 H37        -9.8590   -5.3836   57.2661 H       1  ZINC001085711660    0.0800
     38 H38       -11.9425   -2.1148   58.8242 H       1  ZINC001085711660    0.0900
     39 H39       -11.5515   -2.0955   57.0878 H       1  ZINC001085711660    0.0900
     40 H40       -12.9530   -2.8444   55.5061 H       1  ZINC001085711660    0.1000
     41 H41       -13.2542   -4.6247   55.7487 H       1  ZINC001085711660    0.0800
     42 H42       -15.3856   -2.6734   55.8343 H       1  ZINC001085711660    0.0900
     43 H43       -15.4253   -4.2031   56.8115 H       1  ZINC001085711660    0.0800
     44 H44       -16.6703   -1.5318   58.2789 H       1  ZINC001085711660    0.0800
     45 H45       -16.9682   -3.2458   57.9028 H       1  ZINC001085711660    0.0800
     46 H46       -17.1437   -2.6578   59.5736 H       1  ZINC001085711660    0.0700
     47 H47       -13.2811   -1.4440   62.8988 H       1  ZINC001085711660    0.1800
     48 H48       -12.9687    1.5139   61.4266 H       1  ZINC001085711660    0.0800
     49 H49       -14.7300    1.7533   61.3331 H       1  ZINC001085711660    0.0800
     50 H50       -13.9919    1.1537   62.8377 H       1  ZINC001085711660    0.0900
@<TRIPOS>BOND
     1     1     2    1
     2     1    28    1
     3     1    29    1
     4     1    30    1
     5     2     3    1
     6     3     4    1
     7     3    31    1
     8     3    32    1
     9     4    27    1
    10     4     5    2
    11     5     6    1
    12     5    33    1
    13     6     7    2
    14     6    34    1
    15     7     8    1
    16     7    27    1
    17     8     9    2
    18     8    10   am
    19    10    11    1
    20    10    12    1
    21    11    35    1
    22    11    36    1
    23    11    37    1
    24    12    13    1
    25    12    38    1
    26    12    39    1
    27    13    14    1
    28    13    17    1
    29    13    15    1
    30    15    16    1
    31    15    40    1
    32    15    41    1
    33    16    17    1
    34    16    42    1
    35    16    43    1
    36    17    18    1
    37    18    19    1
    38    18    20    1
    39    18    21    1
    40    20    44    1
    41    20    45    1
    42    20    46    1
    43    21    26    1
    44    21    22    2
    45    22    23    1
    46    23    24    2
    47    23    47    1
    48    24    25    1
    49    24    26    1
    50    25    48    1
    51    25    49    1
    52    25    50    1
@<TRIPOS>SUBSTRUCTURE
     1 ZINC001085711660        1 TEMP              0 ****  ****    0 ROOT


##########                                Name:    ZINC001207290212
##########                DOCK_Rotatable_Bonds:                   8
##########                         Heavy_Atoms:                  23
##########                    Molecular_Weight:             344.435
##########                DOCK_Rotatable_Bonds:                   8
##########                       Formal_Charge:               -0.03
##########                     HBond_Acceptors:                   9
##########                        HBond_Donors:                   2
##########                         Heavy_Atoms:                  23
##########                          Grid_Score:          -33.238106
##########                     Grid_vdw_energy:          -31.976458
##########                      Grid_es_energy:           -1.261648
##########           Internal_energy_repulsive:            4.447478

@<TRIPOS>MOLECULE
ZINC001207290212
 47 48 1 0 0
SMALL
USER_CHARGES


@<TRIPOS>ATOM
      1 C1         -4.7345    2.5257   50.9169 C.3     1  ZINC001207290212   -0.1500
      2 C2         -5.9047    2.5914   51.9005 C.3     1  ZINC001207290212   -0.6300
      3 S3         -7.3486    1.7643   51.1785 S.o2    1  ZINC001207290212    2.6100
      4 O4         -7.8606    2.5169   50.0872 O.2     1  ZINC001207290212   -0.9500
      5 O5         -7.1156    0.3675   51.0597 O.2     1  ZINC001207290212   -0.9500
      6 N6         -8.5195    1.8853   52.3431 N.am    1  ZINC001207290212   -1.1100
      7 C7         -8.3008    1.2950   53.6659 C.3     1  ZINC001207290212    0.0900
      8 C8         -9.5890    0.6951   54.1676 C.2     1  ZINC001207290212    0.5100
      9 O9        -10.2865    1.3165   54.9412 O.2     1  ZINC001207290212   -0.5300
     10 N10        -9.9660   -0.5318   53.7568 N.am    1  ZINC001207290212   -0.7200
     11 C11       -11.2192   -1.1142   54.2431 C.3     1  ZINC001207290212    0.1400
     12 H12       -12.0157   -0.3705   54.2190 H       1  ZINC001207290212    0.1000
     13 C13       -11.0373   -1.6563   55.6729 C.3     1  ZINC001207290212    0.0200
     14 N14       -11.2773   -3.1146   55.6179 N.3     1  ZINC001207290212   -0.5100
     15 C15       -11.9139   -3.5904   56.8534 C.3     1  ZINC001207290212    0.1300
     16 C16       -10.8860   -3.6608   57.9531 C.2     1  ZINC001207290212    0.0000
     17 C17       -10.0560   -4.6882   58.1978 C.2     1  ZINC001207290212   -0.0700
     18 O18        -9.3046   -4.3461   59.2626 O.3     1  ZINC001207290212   -0.2000
     19 C19        -9.6825   -3.1214   59.6529 C.2     1  ZINC001207290212    0.1900
     20 C20        -9.1019   -2.3510   60.8105 C.3     1  ZINC001207290212   -0.0600
     21 N21       -10.6303   -2.7040   58.8629 N.2     1  ZINC001207290212   -0.4700
     22 C22       -12.1609   -3.3356   54.4446 C.3     1  ZINC001207290212    0.0400
     23 C23       -11.6067   -2.3433   53.3892 C.3     1  ZINC001207290212   -0.1000
     24 H24       -10.7297   -2.7586   52.8925 H       1  ZINC001207290212    0.0900
     25 C25       -12.6857   -1.9824   52.3663 C.3     1  ZINC001207290212   -0.1400
     26 H26        -4.4909    1.4834   50.7111 H       1  ZINC001207290212    0.0700
     27 H27        -5.0121    3.0242   49.9882 H       1  ZINC001207290212    0.0700
     28 H28        -3.8669    3.0228   51.3508 H       1  ZINC001207290212    0.0800
     29 H29        -5.6271    2.0929   52.8292 H       1  ZINC001207290212    0.1300
     30 H30        -6.1483    3.6337   52.1063 H       1  ZINC001207290212    0.1300
     31 H31        -9.3503    2.3472   52.1495 H       1  ZINC001207290212    0.4300
     32 H32        -7.5409    0.5168   53.5953 H       1  ZINC001207290212    0.1000
     33 H33        -7.9662    2.0679   54.3579 H       1  ZINC001207290212    0.1100
     34 H34        -9.4076   -1.0293   53.1390 H       1  ZINC001207290212    0.4100
     35 H35       -10.0222   -1.4598   56.0182 H       1  ZINC001207290212    0.0800
     36 H36       -11.7576   -1.1864   56.3427 H       1  ZINC001207290212    0.0500
     37 H37       -12.7078   -2.9014   57.1416 H       1  ZINC001207290212    0.0600
     38 H38       -12.3358   -4.5815   56.6863 H       1  ZINC001207290212    0.1000
     39 H39       -10.0014   -5.6146   57.6451 H       1  ZINC001207290212    0.2100
     40 H40        -8.3218   -2.9445   61.2873 H       1  ZINC001207290212    0.0900
     41 H41        -8.6759   -1.4156   60.4474 H       1  ZINC001207290212    0.1000
     42 H42        -9.8879   -2.1353   61.5343 H       1  ZINC001207290212    0.1000
     43 H43       -12.0781   -4.3624   54.0886 H       1  ZINC001207290212    0.0900
     44 H44       -13.1951   -3.0951   54.6911 H       1  ZINC001207290212    0.0500
     45 H45       -13.5403   -1.5418   52.8797 H       1  ZINC001207290212    0.0600
     46 H46       -12.2828   -1.2656   51.6507 H       1  ZINC001207290212    0.0600
     47 H47       -13.0027   -2.8825   51.8396 H       1  ZINC001207290212    0.0600
@<TRIPOS>BOND
     1     1     2    1
     2     1    26    1
     3     1    27    1
     4     1    28    1
     5     2     3    1
     6     2    29    1
     7     2    30    1
     8     3     4    2
     9     3     5    2
    10     3     6   am
    11     6     7    1
    12     6    31    1
    13     7     8    1
    14     7    32    1
    15     7    33    1
    16     8     9    2
    17     8    10   am
    18    10    11    1
    19    10    34    1
    20    11    12    1
    21    11    23    1
    22    11    13    1
    23    13    14    1
    24    13    35    1
    25    13    36    1
    26    14    15    1
    27    14    22    1
    28    15    16    1
    29    15    37    1
    30    15    38    1
    31    16    21    1
    32    16    17    2
    33    17    18    1
    34    17    39    1
    35    18    19    1
    36    19    20    1
    37    19    21    2
    38    20    40    1
    39    20    41    1
    40    20    42    1
    41    22    23    1
    42    22    43    1
    43    22    44    1
    44    23    24    1
    45    23    25    1
    46    25    45    1
    47    25    46    1
    48    25    47    1
@<TRIPOS>SUBSTRUCTURE
     1 ZINC001207290212        1 TEMP              0 ****  ****    0 ROOT


##########                                Name:    ZINC000534799364
##########                DOCK_Rotatable_Bonds:                   4
##########                         Heavy_Atoms:                  29
##########                    Molecular_Weight:             391.491
##########                DOCK_Rotatable_Bonds:                   4
##########                       Formal_Charge:           0.0199998
##########                     HBond_Acceptors:                   6
##########                        HBond_Donors:                   0
##########                         Heavy_Atoms:                  29
##########                          Grid_Score:          -33.198734
##########                     Grid_vdw_energy:          -32.733665
##########                      Grid_es_energy:           -0.465067
##########           Internal_energy_repulsive:            7.810457

@<TRIPOS>MOLECULE
ZINC000534799364
 55 59 1 0 0
SMALL
USER_CHARGES


@<TRIPOS>ATOM
      1 C1        -14.7283   -1.2146   49.3883 C.3     1  ZINC000534799364   -0.1100
      2 C2        -13.8253   -0.0808   49.8005 C.ar    1  ZINC000534799364   -0.0200
      3 C3        -13.6720    1.0338   48.9927 C.ar    1  ZINC000534799364   -0.1700
      4 C4        -12.8350    2.0552   49.4028 C.ar    1  ZINC000534799364    0.1000
      5 N5        -12.1850    1.9804   50.5476 N.ar    1  ZINC000534799364   -0.4800
      6 C6        -12.3022    0.9382   51.3461 C.ar    1  ZINC000534799364    0.0800
      7 C7        -13.1286   -0.1251   51.0061 C.ar    1  ZINC000534799364    0.0300
      8 N8        -13.2506   -1.2278   51.8551 N.3     1  ZINC000534799364   -0.5000
      9 C9        -13.9080   -0.8524   53.1147 C.3     1  ZINC000534799364    0.0600
     10 C10       -14.0939   -2.0999   53.9816 C.3     1  ZINC000534799364    0.0600
     11 N11       -12.7841   -2.7151   54.2375 N.3     1  ZINC000534799364   -0.5300
     12 C12       -12.9124   -3.8746   55.1303 C.3     1  ZINC000534799364    0.1400
     13 C13       -12.8117   -3.4188   56.5632 C.2     1  ZINC000534799364    0.1100
     14 N14       -11.7028   -3.2145   57.2260 N.2     1  ZINC000534799364   -0.2800
     15 N15       -12.0368   -2.7996   58.5208 N.pl3   1  ZINC000534799364   -0.3100
     16 C16       -11.1325   -2.4790   59.5437 C.ar    1  ZINC000534799364    0.1500
     17 C17        -9.9357   -3.1736   59.6563 C.ar    1  ZINC000534799364   -0.1000
     18 C18        -9.0465   -2.8565   60.6642 C.ar    1  ZINC000534799364   -0.1300
     19 C19        -9.3480   -1.8465   61.5624 C.ar    1  ZINC000534799364    0.1000
     20 F20        -8.4768   -1.5375   62.5476 F       1  ZINC000534799364   -0.1300
     21 C21       -10.5414   -1.1525   61.4517 C.ar    1  ZINC000534799364   -0.1300
     22 C22       -11.4305   -1.4629   60.4415 C.ar    1  ZINC000534799364   -0.0800
     23 C23       -13.3881   -2.7623   58.6106 C.2     1  ZINC000534799364    0.0500
     24 C24       -13.8905   -3.1352   57.4126 C.2     1  ZINC000534799364   -0.2200
     25 C25       -15.4035   -3.1130   57.4496 C.3     1  ZINC000534799364   -0.0400
     26 C26       -15.7668   -3.0944   58.9504 C.3     1  ZINC000534799364   -0.1200
     27 C27       -14.5102   -2.4479   59.5758 C.3     1  ZINC000534799364   -0.0500
     28 C28       -12.1267   -3.0905   52.9779 C.3     1  ZINC000534799364    0.0600
     29 C29       -11.9408   -1.8430   52.1110 C.3     1  ZINC000534799364    0.0600
     30 H30       -15.7115   -1.0782   49.8387 H       1  ZINC000534799364    0.0800
     31 H31       -14.8244   -1.2264   48.3026 H       1  ZINC000534799364    0.0600
     32 H32       -14.3021   -2.1595   49.7256 H       1  ZINC000534799364    0.0800
     33 H33       -14.1997    1.1041   48.0531 H       1  ZINC000534799364    0.1400
     34 H34       -12.7116    2.9263   48.7765 H       1  ZINC000534799364    0.1600
     35 H35       -11.7535    0.9127   52.2759 H       1  ZINC000534799364    0.1500
     36 H36       -13.2895   -0.1291   53.6462 H       1  ZINC000534799364    0.0500
     37 H37       -14.8810   -0.4108   52.8995 H       1  ZINC000534799364    0.0800
     38 H38       -14.5551   -1.8193   54.9285 H       1  ZINC000534799364    0.0900
     39 H39       -14.7348   -2.8120   53.4615 H       1  ZINC000534799364    0.0500
     40 H40       -13.8784   -4.3528   54.9682 H       1  ZINC000534799364    0.1000
     41 H41       -12.1145   -4.5863   54.9184 H       1  ZINC000534799364    0.0500
     42 H42        -9.7004   -3.9616   58.9562 H       1  ZINC000534799364    0.1400
     43 H43        -8.1156   -3.3969   60.7523 H       1  ZINC000534799364    0.1500
     44 H44       -10.7750   -0.3654   62.1533 H       1  ZINC000534799364    0.1500
     45 H45       -12.3609   -0.9213   60.3553 H       1  ZINC000534799364    0.1400
     46 H46       -15.7813   -2.2169   56.9573 H       1  ZINC000534799364    0.0800
     47 H47       -15.8071   -4.0065   56.9732 H       1  ZINC000534799364    0.0700
     48 H48       -16.6492   -2.4802   59.1299 H       1  ZINC000534799364    0.0800
     49 H49       -15.9152   -4.1062   59.3276 H       1  ZINC000534799364    0.0800
     50 H50       -14.3027   -2.8887   60.5509 H       1  ZINC000534799364    0.0800
     51 H51       -14.6444   -1.3700   59.6674 H       1  ZINC000534799364    0.0900
     52 H52       -11.1536   -3.5322   53.1931 H       1  ZINC000534799364    0.0900
     53 H53       -12.7452   -3.8138   52.4465 H       1  ZINC000534799364    0.0500
     54 H54       -11.4795   -2.1236   51.1641 H       1  ZINC000534799364    0.0800
     55 H55       -11.3000   -1.1310   52.6311 H       1  ZINC000534799364    0.0500
@<TRIPOS>BOND
     1     1     2    1
     2     1    30    1
     3     1    31    1
     4     1    32    1
     5     2     7   ar
     6     2     3   ar
     7     3     4   ar
     8     3    33    1
     9     4     5   ar
    10     4    34    1
    11     5     6   ar
    12     6     7   ar
    13     6    35    1
    14     7     8    1
    15     8    29    1
    16     8     9    1
    17     9    10    1
    18     9    36    1
    19     9    37    1
    20    10    11    1
    21    10    38    1
    22    10    39    1
    23    11    12    1
    24    11    28    1
    25    12    13    1
    26    12    40    1
    27    12    41    1
    28    13    24    1
    29    13    14    2
    30    14    15    1
    31    15    16    1
    32    15    23    1
    33    16    22   ar
    34    16    17   ar
    35    17    18   ar
    36    17    42    1
    37    18    19   ar
    38    18    43    1
    39    19    20    1
    40    19    21   ar
    41    21    22   ar
    42    21    44    1
    43    22    45    1
    44    23    27    1
    45    23    24    2
    46    24    25    1
    47    25    26    1
    48    25    46    1
    49    25    47    1
    50    26    27    1
    51    26    48    1
    52    26    49    1
    53    27    50    1
    54    27    51    1
    55    28    29    1
    56    28    52    1
    57    28    53    1
    58    29    54    1
    59    29    55    1
@<TRIPOS>SUBSTRUCTURE
     1 ZINC000534799364        1 TEMP              0 ****  ****    0 ROOT


##########                                Name:    ZINC001085817863
##########                DOCK_Rotatable_Bonds:                   7
##########                         Heavy_Atoms:                  24
##########                    Molecular_Weight:             326.442
##########                DOCK_Rotatable_Bonds:                   7
##########                       Formal_Charge:           0.0299998
##########                     HBond_Acceptors:                   5
##########                        HBond_Donors:                   0
##########                         Heavy_Atoms:                  24
##########                          Grid_Score:          -33.194885
##########                     Grid_vdw_energy:          -30.990604
##########                      Grid_es_energy:           -2.204283
##########           Internal_energy_repulsive:           14.542883

@<TRIPOS>MOLECULE
ZINC001085817863
 50 52 1 0 0
SMALL
USER_CHARGES


@<TRIPOS>ATOM
      1 C1        -14.2853   -4.8754   57.3936 C.3     1  ZINC001085817863   -0.1400
      2 C2        -12.8235   -5.0322   56.9697 C.3     1  ZINC001085817863   -0.0700
      3 C3        -12.3288   -3.7353   56.3829 C.2     1  ZINC001085817863    0.1100
      4 C4        -11.9397   -2.6329   57.0927 C.2     1  ZINC001085817863   -0.2400
      5 C5        -11.9221   -2.4843   58.5577 C.2     1  ZINC001085817863    0.6000
      6 O6        -12.9635   -2.3249   59.1654 O.2     1  ZINC001085817863   -0.5300
      7 N7        -10.7519   -2.5250   59.2252 N.am    1  ZINC001085817863   -0.6100
      8 C8         -9.4975   -2.7171   58.4934 C.3     1  ZINC001085817863    0.0800
      9 C9        -10.7344   -2.3772   60.6826 C.3     1  ZINC001085817863    0.1300
     10 C10       -10.3210   -0.9496   61.0456 C.3     1  ZINC001085817863    0.0100
     11 H11        -9.4428   -0.6123   60.4949 H       1  ZINC001085817863    0.0800
     12 C12       -11.4847    0.0512   61.0132 C.3     1  ZINC001085817863   -0.1400
     13 C13       -10.8003    0.6239   62.2622 C.3     1  ZINC001085817863    0.0000
     14 N14       -10.2286   -0.7161   62.4989 N.3     1  ZINC001085817863   -0.4400
     15 C15        -8.8277   -0.6222   62.9306 C.3     1  ZINC001085817863    0.0700
     16 C16        -8.7685   -0.0490   64.3230 C.ar    1  ZINC001085817863   -0.1300
     17 C17        -8.9037    1.3157   64.5267 C.ar    1  ZINC001085817863   -0.0700
     18 C18        -8.8432    1.7983   65.8252 C.ar    1  ZINC001085817863   -0.1700
     19 C19        -8.6515    0.9096   66.8658 C.ar    1  ZINC001085817863    0.1000
     20 N20        -8.5268   -0.3829   66.6347 N.ar    1  ZINC001085817863   -0.4800
     21 C21        -8.5845   -0.8778   65.4138 C.ar    1  ZINC001085817863    0.1200
     22 C22       -11.5426   -1.6287   56.0999 C.2     1  ZINC001085817863   -0.1900
     23 C23       -11.7214   -2.1973   54.8944 C.2     1  ZINC001085817863   -0.0200
     24 N24       -12.1892   -3.4670   55.0707 N.pl3   1  ZINC001085817863   -0.4400
     25 C25       -12.5044   -4.4011   53.9871 C.3     1  ZINC001085817863    0.0600
     26 H26       -14.6432   -5.8135   57.8180 H       1  ZINC001085817863    0.0600
     27 H27       -14.3644   -4.0852   58.1401 H       1  ZINC001085817863    0.0500
     28 H28       -14.8898   -4.6159   56.5244 H       1  ZINC001085817863    0.0600
     29 H29       -12.2191   -5.2917   57.8388 H       1  ZINC001085817863    0.0600
     30 H30       -12.7445   -5.8224   56.2231 H       1  ZINC001085817863    0.1100
     31 H31        -9.3777   -1.9182   57.7616 H       1  ZINC001085817863    0.0700
     32 H32        -8.6619   -2.6972   59.1930 H       1  ZINC001085817863    0.0700
     33 H33        -9.5194   -3.6788   57.9808 H       1  ZINC001085817863    0.0600
     34 H34       -11.7289   -2.5797   61.0802 H       1  ZINC001085817863    0.0800
     35 H35       -10.0215   -3.0818   61.1108 H       1  ZINC001085817863    0.1000
     36 H36       -11.4745    0.7198   60.1525 H       1  ZINC001085817863    0.0800
     37 H37       -12.4613   -0.3938   61.2038 H       1  ZINC001085817863    0.1000
     38 H38       -10.0496    1.3815   62.0372 H       1  ZINC001085817863    0.0700
     39 H39       -11.5010    0.9403   63.0348 H       1  ZINC001085817863    0.0800
     40 H40        -8.3790   -1.6156   62.9272 H       1  ZINC001085817863    0.0900
     41 H41        -8.2796    0.0263   62.2471 H       1  ZINC001085817863    0.0500
     42 H42        -9.0523    1.9868   63.6937 H       1  ZINC001085817863    0.1300
     43 H43        -8.9443    2.8557   66.0209 H       1  ZINC001085817863    0.1300
     44 H44        -8.6029    1.2775   67.8800 H       1  ZINC001085817863    0.1600
     45 H45        -8.4781   -1.9419   65.2637 H       1  ZINC001085817863    0.1500
     46 H46       -11.1792   -0.6311   56.2977 H       1  ZINC001085817863    0.1600
     47 H47       -11.5233   -1.7274   53.9424 H       1  ZINC001085817863    0.1600
     48 H48       -11.6174   -4.9848   53.7411 H       1  ZINC001085817863    0.0800
     49 H49       -13.3032   -5.0708   54.3056 H       1  ZINC001085817863    0.0900
     50 H50       -12.8271   -3.8427   53.1084 H       1  ZINC001085817863    0.0900
@<TRIPOS>BOND
     1     1     2    1
     2     1    26    1
     3     1    27    1
     4     1    28    1
     5     2     3    1
     6     2    29    1
     7     2    30    1
     8     3    24    1
     9     3     4    2
    10     4     5    1
    11     4    22    1
    12     5     6    2
    13     5     7   am
    14     7     8    1
    15     7     9    1
    16     8    31    1
    17     8    32    1
    18     8    33    1
    19     9    10    1
    20     9    34    1
    21     9    35    1
    22    10    11    1
    23    10    14    1
    24    10    12    1
    25    12    13    1
    26    12    36    1
    27    12    37    1
    28    13    14    1
    29    13    38    1
    30    13    39    1
    31    14    15    1
    32    15    16    1
    33    15    40    1
    34    15    41    1
    35    16    21   ar
    36    16    17   ar
    37    17    18   ar
    38    17    42    1
    39    18    19   ar
    40    18    43    1
    41    19    20   ar
    42    19    44    1
    43    20    21   ar
    44    21    45    1
    45    22    23    2
    46    22    46    1
    47    23    24    1
    48    23    47    1
    49    24    25    1
    50    25    48    1
    51    25    49    1
    52    25    50    1
@<TRIPOS>SUBSTRUCTURE
     1 ZINC001085817863        1 TEMP              0 ****  ****    0 ROOT


##########                                Name:    ZINC001143596311
##########                DOCK_Rotatable_Bonds:                   9
##########                         Heavy_Atoms:                  21
##########                    Molecular_Weight:             335.811
##########                DOCK_Rotatable_Bonds:                   9
##########                       Formal_Charge:          0.00999959
##########                     HBond_Acceptors:                   9
##########                        HBond_Donors:                   3
##########                         Heavy_Atoms:                  21
##########                          Grid_Score:          -33.174461
##########                     Grid_vdw_energy:          -33.166245
##########                      Grid_es_energy:           -0.008216
##########           Internal_energy_repulsive:           12.688720

@<TRIPOS>MOLECULE
ZINC001143596311
 39 39 1 0 0
SMALL
USER_CHARGES


@<TRIPOS>ATOM
      1 C1        -11.7204   -3.8596   52.7480 C.3     1  ZINC001143596311    0.0400
      2 O2        -12.9243   -4.3552   53.3371 O.3     1  ZINC001143596311   -0.2600
      3 N3        -12.9897   -4.1866   54.7889 N.3     1  ZINC001143596311   -0.3700
      4 C4        -12.7166   -2.7944   55.1700 C.3     1  ZINC001143596311    0.0000
      5 C5        -14.2885   -4.6306   55.3125 C.3     1  ZINC001143596311    0.0400
      6 C6        -14.0992   -5.2233   56.7102 C.3     1  ZINC001143596311   -0.1300
      7 C7        -14.8363   -4.3586   57.7349 C.3     1  ZINC001143596311    0.1200
      8 N8        -13.8715   -3.5201   58.4506 N.am    1  ZINC001143596311   -0.7200
      9 C9        -14.2143   -2.9479   59.6217 C.2     1  ZINC001143596311    0.5600
     10 O10       -15.3235   -3.1288   60.0849 O.2     1  ZINC001143596311   -0.5200
     11 C11       -13.2415   -2.1007   60.3428 C.ar    1  ZINC001143596311   -0.1500
     12 C12       -13.6878   -1.0502   61.1466 C.ar    1  ZINC001143596311   -0.0200
     13 C13       -12.7753   -0.2630   61.8172 C.ar    1  ZINC001143596311   -0.1300
     14 C14       -11.4186   -0.5127   61.6941 C.ar    1  ZINC001143596311    0.0700
     15 Cl15      -10.2759    0.4825   62.5412 Cl      1  ZINC001143596311   -0.0200
     16 C16       -10.9698   -1.5538   60.8979 C.ar    1  ZINC001143596311   -0.6800
     17 S17        -9.2418   -1.8642   60.7479 S.o2    1  ZINC001143596311    2.7000
     18 N18        -9.0682   -3.2524   59.8620 N.am    1  ZINC001143596311   -1.2500
     19 O19        -8.7127   -0.8119   59.9529 O.2     1  ZINC001143596311   -0.9400
     20 O20        -8.7725   -2.1616   62.0558 O.2     1  ZINC001143596311   -0.9500
     21 C21       -11.8727   -2.3515   60.2276 C.ar    1  ZINC001143596311    0.0500
     22 H22       -11.6281   -2.7929   52.9525 H       1  ZINC001143596311    0.0400
     23 H23       -10.8651   -4.3860   53.1718 H       1  ZINC001143596311    0.0500
     24 H24       -11.7494   -4.0219   51.6706 H       1  ZINC001143596311    0.0900
     25 H25       -13.4557   -2.1396   54.7084 H       1  ZINC001143596311    0.0400
     26 H26       -12.7716   -2.6971   56.2542 H       1  ZINC001143596311    0.0900
     27 H27       -11.7197   -2.5136   54.8301 H       1  ZINC001143596311    0.0800
     28 H28       -14.9680   -3.7801   55.3674 H       1  ZINC001143596311    0.0500
     29 H29       -14.7074   -5.3882   54.6502 H       1  ZINC001143596311    0.0900
     30 H30       -14.5017   -6.2360   56.7330 H       1  ZINC001143596311    0.0800
     31 H31       -13.0370   -5.2489   56.9534 H       1  ZINC001143596311    0.0800
     32 H32       -15.5591   -3.7240   57.2221 H       1  ZINC001143596311    0.0800
     33 H33       -15.3566   -5.0010   58.4452 H       1  ZINC001143596311    0.0800
     34 H34       -12.9859   -3.3768   58.0816 H       1  ZINC001143596311    0.4000
     35 H35       -14.7454   -0.8541   61.2429 H       1  ZINC001143596311    0.1500
     36 H36       -13.1192    0.5500   62.4394 H       1  ZINC001143596311    0.1600
     37 H37        -8.1821   -3.5951   59.6659 H       1  ZINC001143596311    0.4200
     38 H38        -9.8525   -3.7230   59.5390 H       1  ZINC001143596311    0.4200
     39 H39       -11.5216   -3.1628   59.6071 H       1  ZINC001143596311    0.1700
@<TRIPOS>BOND
     1     1     2    1
     2     1    22    1
     3     1    23    1
     4     1    24    1
     5     2     3    1
     6     3     4    1
     7     3     5    1
     8     4    25    1
     9     4    26    1
    10     4    27    1
    11     5     6    1
    12     5    28    1
    13     5    29    1
    14     6     7    1
    15     6    30    1
    16     6    31    1
    17     7     8    1
    18     7    32    1
    19     7    33    1
    20     8     9   am
    21     8    34    1
    22     9    10    2
    23     9    11    1
    24    11    21   ar
    25    11    12   ar
    26    12    13   ar
    27    12    35    1
    28    13    14   ar
    29    13    36    1
    30    14    15    1
    31    14    16   ar
    32    16    17    1
    33    16    21   ar
    34    17    18   am
    35    17    19    2
    36    17    20    2
    37    18    37    1
    38    18    38    1
    39    21    39    1
@<TRIPOS>SUBSTRUCTURE
     1 ZINC001143596311        1 TEMP              0 ****  ****    0 ROOT


##########                                Name:    ZINC000939075213
##########                DOCK_Rotatable_Bonds:                   7
##########                         Heavy_Atoms:                  24
##########                    Molecular_Weight:             327.426
##########                DOCK_Rotatable_Bonds:                   7
##########                       Formal_Charge:          -0.0200002
##########                     HBond_Acceptors:                   5
##########                        HBond_Donors:                   2
##########                         Heavy_Atoms:                  24
##########                          Grid_Score:          -33.124168
##########                     Grid_vdw_energy:          -31.306019
##########                      Grid_es_energy:           -1.818151
##########           Internal_energy_repulsive:            8.124515

@<TRIPOS>MOLECULE
ZINC000939075213
 49 51 1 0 0
SMALL
USER_CHARGES


@<TRIPOS>ATOM
      1 C1         -8.4711   -3.7510   59.4645 C.3     1  ZINC000939075213   -0.1400
      2 C2         -9.1411   -2.3915   59.6739 C.3     1  ZINC000939075213   -0.1100
      3 H3         -8.6061   -1.6078   59.1376 H       1  ZINC000939075213    0.0900
      4 C4         -9.2545   -2.0548   61.1816 C.3     1  ZINC000939075213    0.1100
      5 N5        -10.3892   -1.1182   61.2749 N.am    1  ZINC000939075213   -0.6200
      6 C6        -10.5852   -0.2172   62.2579 C.2     1  ZINC000939075213    0.5600
      7 O7        -11.5619    0.5098   62.2317 O.2     1  ZINC000939075213   -0.5400
      8 C8         -9.6561   -0.1158   63.3205 C.2     1  ZINC000939075213   -0.2600
      9 C9         -9.9447    0.6485   64.4029 C.2     1  ZINC000939075213    0.0400
     10 C10        -9.0147    0.7501   65.4669 C.2     1  ZINC000939075213    0.0000
     11 C11        -9.1655    1.5049   66.6156 C.2     1  ZINC000939075213   -0.1500
     12 C12        -8.0158    1.3124   67.3871 C.2     1  ZINC000939075213   -0.2200
     13 C13        -7.2002    0.4642   66.7152 C.2     1  ZINC000939075213    0.0200
     14 N14        -7.7981    0.1106   65.5488 N.pl3   1  ZINC000939075213   -0.5000
     15 C15       -11.2710   -1.3292   60.1175 C.3     1  ZINC000939075213    0.0900
     16 C16       -10.6332   -2.4359   59.2506 C.3     1  ZINC000939075213    0.1400
     17 H17       -11.0704   -3.4072   59.4823 H       1  ZINC000939075213    0.1100
     18 N18       -10.7825   -2.1290   57.8260 N.am    1  ZINC000939075213   -0.7200
     19 C19       -11.8675   -2.5614   57.1535 C.2     1  ZINC000939075213    0.5300
     20 O20       -12.7196   -3.2059   57.7275 O.2     1  ZINC000939075213   -0.5300
     21 C21       -12.0218   -2.2441   55.6884 C.3     1  ZINC000939075213   -0.0600
     22 C22       -13.4715   -1.8685   55.3753 C.3     1  ZINC000939075213   -0.1300
     23 C23       -11.0878   -1.1248   55.2909 C.2     1  ZINC000939075213   -0.1700
     24 C24       -10.4825   -1.3948   54.1665 C.2     1  ZINC000939075213   -0.1400
     25 C25       -10.9117   -2.7392   53.6266 C.3     1  ZINC000939075213   -0.1100
     26 C26       -11.5797   -3.4497   54.8267 C.3     1  ZINC000939075213   -0.1100
     27 H27        -8.4774   -3.9996   58.4032 H       1  ZINC000939075213    0.0600
     28 H28        -7.4420   -3.7077   59.8214 H       1  ZINC000939075213    0.0700
     29 H29        -9.0164   -4.5142   60.0197 H       1  ZINC000939075213    0.0600
     30 H30        -9.4591   -2.9572   61.7576 H       1  ZINC000939075213    0.0700
     31 H31        -8.3395   -1.5784   61.5337 H       1  ZINC000939075213    0.0800
     32 H32        -8.7173   -0.6472   63.2695 H       1  ZINC000939075213    0.1300
     33 H33       -10.8837    1.1799   64.4539 H       1  ZINC000939075213    0.1500
     34 H34       -10.0117    2.1264   66.8688 H       1  ZINC000939075213    0.1400
     35 H35        -7.8133    1.7605   68.3487 H       1  ZINC000939075213    0.1400
     36 H36        -6.2334    0.1223   67.0541 H       1  ZINC000939075213    0.1600
     37 H37        -7.4274   -0.4881   64.8817 H       1  ZINC000939075213    0.4100
     38 H38       -12.2577   -1.6453   60.4561 H       1  ZINC000939075213    0.0800
     39 H39       -11.3522   -0.4080   59.5406 H       1  ZINC000939075213    0.0700
     40 H40       -10.1004   -1.6145   57.3666 H       1  ZINC000939075213    0.4000
     41 H41       -13.7585   -1.0009   55.9696 H       1  ZINC000939075213    0.0600
     42 H42       -13.5645   -1.6301   54.3159 H       1  ZINC000939075213    0.0700
     43 H43       -14.1246   -2.7068   55.6178 H       1  ZINC000939075213    0.0600
     44 H44       -10.9409   -0.2201   55.8620 H       1  ZINC000939075213    0.1300
     45 H45        -9.7688   -0.7427   53.6851 H       1  ZINC000939075213    0.1300
     46 H46       -11.6276   -2.6114   52.8146 H       1  ZINC000939075213    0.0800
     47 H47       -10.0454   -3.3052   53.2845 H       1  ZINC000939075213    0.0800
     48 H48       -10.8621   -4.0713   55.3623 H       1  ZINC000939075213    0.0900
     49 H49       -12.4397   -4.0368   54.5046 H       1  ZINC000939075213    0.0800
@<TRIPOS>BOND
     1     1     2    1
     2     1    27    1
     3     1    28    1
     4     1    29    1
     5     2     3    1
     6     2    16    1
     7     2     4    1
     8     4     5    1
     9     4    30    1
    10     4    31    1
    11     5     6   am
    12     5    15    1
    13     6     7    2
    14     6     8    1
    15     8     9    2
    16     8    32    1
    17     9    10    1
    18     9    33    1
    19    10    14    1
    20    10    11    2
    21    11    12    1
    22    11    34    1
    23    12    13    2
    24    12    35    1
    25    13    14    1
    26    13    36    1
    27    14    37    1
    28    15    16    1
    29    15    38    1
    30    15    39    1
    31    16    17    1
    32    16    18    1
    33    18    19   am
    34    18    40    1
    35    19    20    2
    36    19    21    1
    37    21    26    1
    38    21    22    1
    39    21    23    1
    40    22    41    1
    41    22    42    1
    42    22    43    1
    43    23    24    2
    44    23    44    1
    45    24    25    1
    46    24    45    1
    47    25    26    1
    48    25    46    1
    49    25    47    1
    50    26    48    1
    51    26    49    1
@<TRIPOS>SUBSTRUCTURE
     1 ZINC000939075213        1 TEMP              0 ****  ****    0 ROOT


##########                                Name:    ZINC001065334255
##########                DOCK_Rotatable_Bonds:                   7
##########                         Heavy_Atoms:                  23
##########                    Molecular_Weight:             346.448
##########                DOCK_Rotatable_Bonds:                   7
##########                       Formal_Charge:        -5.81145e-07
##########                     HBond_Acceptors:                   8
##########                        HBond_Donors:                   1
##########                         Heavy_Atoms:                  23
##########                          Grid_Score:          -33.118820
##########                     Grid_vdw_energy:          -29.869341
##########                      Grid_es_energy:           -3.249478
##########           Internal_energy_repulsive:           22.187201

@<TRIPOS>MOLECULE
ZINC001065334255
 49 50 1 0 0
SMALL
USER_CHARGES


@<TRIPOS>ATOM
      1 C1        -12.5486   -3.1977   55.2212 C.3     1  ZINC001065334255   -0.1500
      2 C2        -12.1727   -3.0779   56.6994 C.3     1  ZINC001065334255   -0.0800
      3 C3        -13.2257   -3.7880   57.5526 C.3     1  ZINC001065334255   -0.1500
      4 C4        -10.8062   -3.7257   56.9324 C.3     1  ZINC001065334255   -0.1400
      5 C5        -10.3454   -3.4348   58.3374 C.2     1  ZINC001065334255    0.5100
      6 O6         -9.3950   -4.0302   58.7993 O.2     1  ZINC001065334255   -0.5300
      7 N7        -10.9892   -2.5131   59.0806 N.am    1  ZINC001065334255   -0.7300
      8 C8        -10.5400   -2.2291   60.4458 C.3     1  ZINC001065334255    0.1300
      9 C9        -10.9041   -0.7892   60.8133 C.3     1  ZINC001065334255    0.0700
     10 H10       -11.8448   -0.7807   61.3639 H       1  ZINC001065334255    0.0700
     11 C11        -9.7956   -0.1871   61.6843 C.3     1  ZINC001065334255    0.0800
     12 N12       -10.0756    1.2459   61.8669 N.am    1  ZINC001065334255   -0.6100
     13 C13       -10.0754    1.8019   63.0946 C.2     1  ZINC001065334255    0.5400
     14 O14       -10.3079    2.9852   63.2245 O.2     1  ZINC001065334255   -0.5200
     15 C15        -9.7860    0.9536   64.3060 C.3     1  ZINC001065334255   -0.1100
     16 H16       -10.3933    0.0487   64.2814 H       1  ZINC001065334255    0.1200
     17 C17       -10.0791    1.7502   65.5895 C.3     1  ZINC001065334255   -0.1000
     18 C18        -9.4625    1.0013   66.7877 C.3     1  ZINC001065334255   -0.5900
     19 S19        -8.0422    0.0807   66.0941 S.o2    1  ZINC001065334255    2.3900
     20 O20        -6.8324    0.6421   66.5844 O.2     1  ZINC001065334255   -0.9300
     21 O21        -8.2778   -1.3148   66.2220 O.2     1  ZINC001065334255   -0.9300
     22 C22        -8.2812    0.5822   64.3471 C.3     1  ZINC001065334255   -0.5900
     23 C23       -10.3553    2.0540   60.6694 C.3     1  ZINC001065334255    0.0600
     24 C24       -11.4366    1.3428   59.8478 C.3     1  ZINC001065334255    0.0500
     25 O25       -11.0416   -0.0123   59.6212 O.3     1  ZINC001065334255   -0.3700
     26 H26       -13.5220   -2.7364   55.0552 H       1  ZINC001065334255    0.0600
     27 H27       -11.7984   -2.6919   54.6134 H       1  ZINC001065334255    0.0500
     28 H28       -12.5931   -4.2504   54.9418 H       1  ZINC001065334255    0.0600
     29 H29       -12.1282   -2.0254   56.9789 H       1  ZINC001065334255    0.0800
     30 H30       -13.2702   -4.8407   57.2732 H       1  ZINC001065334255    0.0500
     31 H31       -12.9579   -3.7027   58.6057 H       1  ZINC001065334255    0.0700
     32 H32       -14.1992   -3.3266   57.3866 H       1  ZINC001065334255    0.0500
     33 H33       -10.8864   -4.8036   56.7921 H       1  ZINC001065334255    0.0900
     34 H34       -10.0859   -3.3195   56.2223 H       1  ZINC001065334255    0.0900
     35 H35       -11.7500   -2.0378   58.7115 H       1  ZINC001065334255    0.4000
     36 H36       -11.0271   -2.9152   61.1387 H       1  ZINC001065334255    0.0900
     37 H37        -9.4593   -2.3575   60.5068 H       1  ZINC001065334255    0.0800
     38 H38        -9.7797   -0.6846   62.6541 H       1  ZINC001065334255    0.1100
     39 H39        -8.8319   -0.3130   61.1908 H       1  ZINC001065334255    0.0900
     40 H40        -9.6385    2.7442   65.5125 H       1  ZINC001065334255    0.1000
     41 H41       -11.1566    1.8388   65.7278 H       1  ZINC001065334255    0.1000
     42 H42        -9.1219    1.7103   67.5425 H       1  ZINC001065334255    0.1500
     43 H43       -10.1884    0.3104   67.2165 H       1  ZINC001065334255    0.1400
     44 H44        -8.0681   -0.2481   63.6736 H       1  ZINC001065334255    0.1400
     45 H45        -7.6634    1.4468   64.1047 H       1  ZINC001065334255    0.1500
     46 H46       -10.7100    3.0408   60.9671 H       1  ZINC001065334255    0.1000
     47 H47        -9.4479    2.1539   60.0737 H       1  ZINC001065334255    0.0900
     48 H48       -12.3793    1.3598   60.3947 H       1  ZINC001065334255    0.0600
     49 H49       -11.5602    1.8508   58.8914 H       1  ZINC001065334255    0.1100
@<TRIPOS>BOND
     1     1     2    1
     2     1    26    1
     3     1    27    1
     4     1    28    1
     5     2     3    1
     6     2     4    1
     7     2    29    1
     8     3    30    1
     9     3    31    1
    10     3    32    1
    11     4     5    1
    12     4    33    1
    13     4    34    1
    14     5     6    2
    15     5     7   am
    16     7     8    1
    17     7    35    1
    18     8     9    1
    19     8    36    1
    20     8    37    1
    21     9    10    1
    22     9    25    1
    23     9    11    1
    24    11    12    1
    25    11    38    1
    26    11    39    1
    27    12    13   am
    28    12    23    1
    29    13    14    2
    30    13    15    1
    31    15    16    1
    32    15    22    1
    33    15    17    1
    34    17    18    1
    35    17    40    1
    36    17    41    1
    37    18    19    1
    38    18    42    1
    39    18    43    1
    40    19    20    2
    41    19    21    2
    42    19    22    1
    43    22    44    1
    44    22    45    1
    45    23    24    1
    46    23    46    1
    47    23    47    1
    48    24    25    1
    49    24    48    1
    50    24    49    1
@<TRIPOS>SUBSTRUCTURE
     1 ZINC001065334255        1 TEMP              0 ****  ****    0 ROOT


##########                                Name:    ZINC001082278299
##########                DOCK_Rotatable_Bonds:                   9
##########                         Heavy_Atoms:                  25
##########                    Molecular_Weight:              346.47
##########                DOCK_Rotatable_Bonds:                   9
##########                       Formal_Charge:           0.0200001
##########                     HBond_Acceptors:                   5
##########                        HBond_Donors:                   1
##########                         Heavy_Atoms:                  25
##########                          Grid_Score:          -33.102528
##########                     Grid_vdw_energy:          -31.287390
##########                      Grid_es_energy:           -1.815140
##########           Internal_energy_repulsive:           87.812370

@<TRIPOS>MOLECULE
ZINC001082278299
 55 57 1 0 0
SMALL
USER_CHARGES


@<TRIPOS>ATOM
      1 C1        -13.6964   -0.1805   63.3065 C.3     1  ZINC001082278299   -0.1300
      2 C2        -14.6086    0.8977   62.7810 C.2     1  ZINC001082278299    0.0000
      3 C3        -14.9807    0.8902   61.5042 C.2     1  ZINC001082278299   -0.2300
      4 C4        -14.5018   -0.1706   60.6047 C.2     1  ZINC001082278299    0.5400
      5 O5        -15.2873   -0.9743   60.1399 O.2     1  ZINC001082278299   -0.5300
      6 N6        -13.1924   -0.2520   60.2957 N.am    1  ZINC001082278299   -0.7400
      7 C7        -12.7153   -1.3096   59.4012 C.3     1  ZINC001082278299    0.1300
      8 C8        -11.5659   -2.0644   60.0719 C.3     1  ZINC001082278299    0.1400
      9 H9        -11.9349   -2.5786   60.9593 H       1  ZINC001082278299    0.0800
     10 C10       -10.4660   -1.0757   60.4713 C.3     1  ZINC001082278299   -0.1300
     11 C11        -9.2622   -1.8496   61.0136 C.3     1  ZINC001082278299   -0.1200
     12 C12        -8.7113   -2.7696   59.9219 C.3     1  ZINC001082278299   -0.1400
     13 C13        -9.7911   -3.7776   59.5162 C.3     1  ZINC001082278299    0.1100
     14 N14       -11.0056   -3.0449   59.1318 N.am    1  ZINC001082278299   -0.6100
     15 C15       -11.5910   -3.2643   57.9378 C.2     1  ZINC001082278299    0.5100
     16 O16       -12.5931   -2.6533   57.6323 O.2     1  ZINC001082278299   -0.5100
     17 C17       -11.0006   -4.2691   56.9824 C.3     1  ZINC001082278299   -0.1100
     18 C18       -11.8182   -4.2996   55.7169 C.2     1  ZINC001082278299   -0.0900
     19 C19       -12.9968   -4.8470   55.7472 C.2     1  ZINC001082278299   -0.1800
     20 C20       -13.8856   -4.9361   54.5393 C.3     1  ZINC001082278299    0.0900
     21 O21       -13.4217   -4.0477   53.5207 O.3     1  ZINC001082278299   -0.3800
     22 C22       -12.0222   -4.1902   53.2476 C.3     1  ZINC001082278299    0.0600
     23 C23       -11.2419   -3.6903   54.4687 C.3     1  ZINC001082278299   -0.1100
     24 C24       -15.0994    1.9846   63.7024 C.3     1  ZINC001082278299   -0.1200
     25 C25       -15.4615    1.5865   65.1347 C.3     1  ZINC001082278299   -0.1900
     26 C26       -14.1890    2.3914   64.8629 C.3     1  ZINC001082278299   -0.1500
     27 H27       -12.6589    0.1335   63.1916 H       1  ZINC001082278299    0.0800
     28 H28       -13.9087   -0.3540   64.3614 H       1  ZINC001082278299    0.0800
     29 H29       -13.8616   -1.1010   62.7465 H       1  ZINC001082278299    0.0700
     30 H30       -15.6345    1.6630   61.1278 H       1  ZINC001082278299    0.1300
     31 H31       -12.5661    0.3897   60.6655 H       1  ZINC001082278299    0.3900
     32 H32       -13.5303   -2.0020   59.1900 H       1  ZINC001082278299    0.0900
     33 H33       -12.3643   -0.8665   58.4693 H       1  ZINC001082278299    0.0800
     34 H34       -10.1632   -0.4964   59.5991 H       1  ZINC001082278299    0.0700
     35 H35       -10.8435   -0.4034   61.2419 H       1  ZINC001082278299    0.0800
     36 H36        -8.4877   -1.1471   61.3215 H       1  ZINC001082278299    0.0700
     37 H37        -9.5712   -2.4478   61.8708 H       1  ZINC001082278299    0.0700
     38 H38        -8.4249   -2.1745   59.0548 H       1  ZINC001082278299    0.0700
     39 H39        -7.8397   -3.3031   60.3013 H       1  ZINC001082278299    0.0800
     40 H40        -9.4391   -4.3703   58.6718 H       1  ZINC001082278299    0.0900
     41 H41       -10.0136   -4.4334   60.3580 H       1  ZINC001082278299    0.0700
     42 H42        -9.9749   -3.9862   56.7457 H       1  ZINC001082278299    0.1000
     43 H43       -11.0078   -5.2567   57.4436 H       1  ZINC001082278299    0.1000
     44 H44       -13.3524   -5.2560   56.6813 H       1  ZINC001082278299    0.1100
     45 H45       -13.8773   -5.9576   54.1591 H       1  ZINC001082278299    0.0600
     46 H46       -14.9036   -4.6650   54.8190 H       1  ZINC001082278299    0.1000
     47 H47       -11.7892   -5.2388   53.0623 H       1  ZINC001082278299    0.0600
     48 H48       -11.7560   -3.5948   52.3743 H       1  ZINC001082278299    0.1000
     49 H49       -11.3100   -2.6037   54.5229 H       1  ZINC001082278299    0.0800
     50 H50       -10.1962   -3.9839   54.3764 H       1  ZINC001082278299    0.0800
     51 H51       -15.6945    2.7670   63.2314 H       1  ZINC001082278299    0.1300
     52 H52       -16.2951    2.1069   65.6062 H       1  ZINC001082278299    0.1000
     53 H53       -15.3448    0.5385   65.4105 H       1  ZINC001082278299    0.1000
     54 H54       -13.2351    1.8729   64.9599 H       1  ZINC001082278299    0.0900
     55 H55       -14.1854    3.4413   65.1556 H       1  ZINC001082278299    0.1000
@<TRIPOS>BOND
     1     1     2    1
     2     1    27    1
     3     1    28    1
     4     1    29    1
     5     2     3    2
     6     2    24    1
     7     3     4    1
     8     3    30    1
     9     4     5    2
    10     4     6   am
    11     6     7    1
    12     6    31    1
    13     7     8    1
    14     7    32    1
    15     7    33    1
    16     8     9    1
    17     8    14    1
    18     8    10    1
    19    10    11    1
    20    10    34    1
    21    10    35    1
    22    11    12    1
    23    11    36    1
    24    11    37    1
    25    12    13    1
    26    12    38    1
    27    12    39    1
    28    13    14    1
    29    13    40    1
    30    13    41    1
    31    14    15   am
    32    15    16    2
    33    15    17    1
    34    17    18    1
    35    17    42    1
    36    17    43    1
    37    18    23    1
    38    18    19    2
    39    19    20    1
    40    19    44    1
    41    20    21    1
    42    20    45    1
    43    20    46    1
    44    21    22    1
    45    22    23    1
    46    22    47    1
    47    22    48    1
    48    23    49    1
    49    23    50    1
    50    24    26    1
    51    24    25    1
    52    24    51    1
    53    25    26    1
    54    25    52    1
    55    25    53    1
    56    26    54    1
    57    26    55    1
@<TRIPOS>SUBSTRUCTURE
     1 ZINC001082278299        1 TEMP              0 ****  ****    0 ROOT


##########                                Name:    ZINC001009984555
##########                DOCK_Rotatable_Bonds:                   7
##########                         Heavy_Atoms:                  23
##########                    Molecular_Weight:             338.446
##########                DOCK_Rotatable_Bonds:                   7
##########                       Formal_Charge:           0.0400002
##########                     HBond_Acceptors:                   6
##########                        HBond_Donors:                   1
##########                         Heavy_Atoms:                  23
##########                          Grid_Score:          -33.102509
##########                     Grid_vdw_energy:          -31.791403
##########                      Grid_es_energy:           -1.311107
##########           Internal_energy_repulsive:           12.588287

@<TRIPOS>MOLECULE
ZINC001009984555
 46 47 1 0 0
SMALL
USER_CHARGES


@<TRIPOS>ATOM
      1 C1        -14.1319   -5.1324   56.3562 C.3     1  ZINC001009984555   -0.1400
      2 S2        -13.8017   -3.3493   56.3094 S.3     1  ZINC001009984555   -0.1800
      3 C3        -13.2810   -2.9861   58.0087 C.3     1  ZINC001009984555   -0.1300
      4 C4        -11.8103   -3.2799   58.1571 C.2     1  ZINC001009984555    0.5500
      5 O5        -11.3434   -4.2933   57.6816 O.2     1  ZINC001009984555   -0.5100
      6 N6        -11.0139   -2.4167   58.8182 N.am    1  ZINC001009984555   -0.6100
      7 C7        -11.4490   -1.1576   59.4497 C.3     1  ZINC001009984555    0.1000
      8 C8        -10.3925   -0.8792   60.5479 C.3     1  ZINC001009984555   -0.1100
      9 H9        -10.5988   -1.4623   61.4454 H       1  ZINC001009984555    0.1000
     10 C10       -10.3195    0.6143   60.8725 C.3     1  ZINC001009984555    0.1300
     11 N11        -9.6161    0.8039   62.1436 N.am    1  ZINC001009984555   -0.7300
     12 C12       -10.2594    0.5889   63.3083 C.2     1  ZINC001009984555    0.5600
     13 O13       -11.4227    0.2366   63.3041 O.2     1  ZINC001009984555   -0.5200
     14 C14        -9.5500    0.7819   64.5912 C.ar    1  ZINC001009984555   -0.1200
     15 C15        -8.7268   -0.2261   65.0949 C.ar    1  ZINC001009984555   -0.0900
     16 C16        -8.0670   -0.0411   66.2926 C.ar    1  ZINC001009984555   -0.1000
     17 C17        -8.2198    1.1404   66.9951 C.ar    1  ZINC001009984555   -0.1200
     18 C18        -9.0356    2.1461   66.5014 C.ar    1  ZINC001009984555    0.0900
     19 F19        -9.1802    3.2977   67.1929 F       1  ZINC001009984555   -0.1300
     20 C20        -9.6965    1.9750   65.3002 C.ar    1  ZINC001009984555   -0.0500
     21 C21       -10.5834    3.0688   64.7635 C.3     1  ZINC001009984555   -0.1200
     22 C22        -9.0902   -1.3633   59.8572 C.3     1  ZINC001009984555   -0.1200
     23 C23        -9.5687   -2.5780   59.0346 C.3     1  ZINC001009984555    0.1400
     24 H24        -9.0553   -2.6002   58.0733 H       1  ZINC001009984555    0.0800
     25 C25        -9.2884   -3.8704   59.8039 C.3     1  ZINC001009984555   -0.1700
     26 H26       -14.9139   -5.3380   57.0869 H       1  ZINC001009984555    0.0800
     27 H27       -14.4575   -5.4675   55.3715 H       1  ZINC001009984555    0.1100
     28 H28       -13.2225   -5.6630   56.6381 H       1  ZINC001009984555    0.0800
     29 H29       -13.4653   -1.9345   58.2283 H       1  ZINC001009984555    0.1100
     30 H30       -13.8473   -3.6070   58.7029 H       1  ZINC001009984555    0.1100
     31 H31       -11.4578   -0.3496   58.7182 H       1  ZINC001009984555    0.0800
     32 H32       -12.4365   -1.2780   59.8952 H       1  ZINC001009984555    0.0800
     33 H33        -9.7816    1.1328   60.0788 H       1  ZINC001009984555    0.0800
     34 H34       -11.3286    1.0186   60.9518 H       1  ZINC001009984555    0.0800
     35 H35        -8.6874    1.0839   62.1469 H       1  ZINC001009984555    0.4000
     36 H36        -8.6066   -1.1499   64.5484 H       1  ZINC001009984555    0.1300
     37 H37        -7.4299   -0.8211   66.6826 H       1  ZINC001009984555    0.1400
     38 H38        -7.7016    1.2796   67.9324 H       1  ZINC001009984555    0.1400
     39 H39       -10.0273    3.6654   64.0403 H       1  ZINC001009984555    0.0800
     40 H40       -11.4527    2.6260   64.2773 H       1  ZINC001009984555    0.1000
     41 H41       -10.9117    3.7061   65.5845 H       1  ZINC001009984555    0.0600
     42 H42        -8.6872   -0.5870   59.2067 H       1  ZINC001009984555    0.0900
     43 H43        -8.3514   -1.6689   60.5981 H       1  ZINC001009984555    0.0900
     44 H44        -9.8192   -3.8490   60.7558 H       1  ZINC001009984555    0.0600
     45 H45        -9.6288   -4.7235   59.2172 H       1  ZINC001009984555    0.0700
     46 H46        -8.2176   -3.9593   59.9870 H       1  ZINC001009984555    0.0700
@<TRIPOS>BOND
     1     1     2    1
     2     1    26    1
     3     1    27    1
     4     1    28    1
     5     2     3    1
     6     3     4    1
     7     3    29    1
     8     3    30    1
     9     4     5    2
    10     4     6   am
    11     6    23    1
    12     6     7    1
    13     7     8    1
    14     7    31    1
    15     7    32    1
    16     8     9    1
    17     8    10    1
    18     8    22    1
    19    10    11    1
    20    10    33    1
    21    10    34    1
    22    11    12   am
    23    11    35    1
    24    12    13    2
    25    12    14    1
    26    14    20   ar
    27    14    15   ar
    28    15    16   ar
    29    15    36    1
    30    16    17   ar
    31    16    37    1
    32    17    18   ar
    33    17    38    1
    34    18    19    1
    35    18    20   ar
    36    20    21    1
    37    21    39    1
    38    21    40    1
    39    21    41    1
    40    22    23    1
    41    22    42    1
    42    22    43    1
    43    23    24    1
    44    23    25    1
    45    25    44    1
    46    25    45    1
    47    25    46    1
@<TRIPOS>SUBSTRUCTURE
     1 ZINC001009984555        1 TEMP              0 ****  ****    0 ROOT


##########                                Name:    ZINC000541252362
##########                DOCK_Rotatable_Bonds:                   5
##########                         Heavy_Atoms:                  27
##########                    Molecular_Weight:             401.254
##########                DOCK_Rotatable_Bonds:                   5
##########                       Formal_Charge:          -0.0199999
##########                     HBond_Acceptors:                   9
##########                        HBond_Donors:                   1
##########                         Heavy_Atoms:                  27
##########                          Grid_Score:          -33.086208
##########                     Grid_vdw_energy:          -33.169132
##########                      Grid_es_energy:            0.082925
##########           Internal_energy_repulsive:            6.376790

@<TRIPOS>MOLECULE
ZINC000541252362
 41 44 1 0 0
SMALL
USER_CHARGES


@<TRIPOS>ATOM
      1 C1         -4.3095    2.5408   49.8911 C.3     1  ZINC000541252362    0.1000
      2 N2         -5.3458    1.7801   50.5937 N.pl3   1  ZINC000541252362   -0.3800
      3 C3         -5.2240    0.5461   51.1154 C.2     1  ZINC000541252362    0.2600
      4 N4         -6.3657    0.2158   51.6585 N.2     1  ZINC000541252362   -0.5300
      5 C5         -7.2463    1.2139   51.5052 C.2     1  ZINC000541252362    0.2700
      6 C6         -8.6492    1.2115   51.9891 C.ar    1  ZINC000541252362    0.0000
      7 C7         -9.4572    2.3301   51.7947 C.ar    1  ZINC000541252362   -0.1000
      8 C8        -10.7625    2.3263   52.2451 C.ar    1  ZINC000541252362   -0.1000
      9 C9        -11.2720    1.2154   52.8896 C.ar    1  ZINC000541252362   -0.1300
     10 C10       -10.4735    0.0954   53.0878 C.ar    1  ZINC000541252362    0.1400
     11 N11       -10.9929   -1.0279   53.7410 N.am    1  ZINC000541252362   -0.6800
     12 C12       -10.9751   -2.2300   53.1318 C.2     1  ZINC000541252362    0.5100
     13 O13       -10.5090   -2.3382   52.0173 O.2     1  ZINC000541252362   -0.4900
     14 C14       -11.5344   -3.4396   53.8353 C.3     1  ZINC000541252362   -0.0600
     15 C15       -11.5893   -3.1777   55.3183 C.2     1  ZINC000541252362    0.0700
     16 C16       -12.5249   -2.4387   55.9543 C.2     1  ZINC000541252362   -0.0700
     17 N17       -12.2132   -2.4515   57.2863 N.pl3   1  ZINC000541252362   -0.3500
     18 C18       -12.8026   -1.8808   58.3784 C.2     1  ZINC000541252362    0.0700
     19 C19       -12.2791   -2.0532   59.6111 C.2     1  ZINC000541252362   -0.0500
     20 Cl20      -13.0443   -1.3189   60.9855 Cl      1  ZINC000541252362   -0.0200
     21 C21       -11.1177   -2.8249   59.7863 C.2     1  ZINC000541252362   -0.0900
     22 C22       -10.5209   -3.3993   58.7063 C.2     1  ZINC000541252362    0.0200
     23 Cl23       -9.0860   -4.3564   58.9033 Cl      1  ZINC000541252362   -0.0100
     24 C24       -11.0800   -3.2092   57.4256 C.2     1  ZINC000541252362    0.2200
     25 N25       -10.7251   -3.6419   56.2237 N.2     1  ZINC000541252362   -0.4300
     26 C26        -9.1635    0.0894   52.6334 C.ar    1  ZINC000541252362   -0.0800
     27 N27        -6.6597    2.1982   50.8602 N.2     1  ZINC000541252362   -0.3100
     28 H28        -3.7433    3.1331   50.6100 H       1  ZINC000541252362    0.0800
     29 H29        -3.6379    1.8522   49.3786 H       1  ZINC000541252362    0.0900
     30 H30        -4.7763    3.2033   49.1622 H       1  ZINC000541252362    0.0900
     31 H31        -4.3350   -0.0666   51.0896 H       1  ZINC000541252362    0.2200
     32 H32        -9.0621    3.2005   51.2919 H       1  ZINC000541252362    0.1300
     33 H33       -11.3870    3.1943   52.0934 H       1  ZINC000541252362    0.1300
     34 H34       -12.2933    1.2175   53.2407 H       1  ZINC000541252362    0.1300
     35 H35       -11.3657   -0.9413   54.6323 H       1  ZINC000541252362    0.4100
     36 H36       -12.5392   -3.6431   53.4648 H       1  ZINC000541252362    0.1200
     37 H37       -10.8946   -4.3007   53.6418 H       1  ZINC000541252362    0.1200
     38 H38       -13.3617   -1.9320   55.4965 H       1  ZINC000541252362    0.1900
     39 H39       -13.6955   -1.2859   58.2547 H       1  ZINC000541252362    0.1800
     40 H40       -10.7004   -2.9612   60.7732 H       1  ZINC000541252362    0.1600
     41 H41        -8.5413   -0.7801   52.7861 H       1  ZINC000541252362    0.1500
@<TRIPOS>BOND
     1     1     2    1
     2     1    28    1
     3     1    29    1
     4     1    30    1
     5     2    27    1
     6     2     3    1
     7     3     4    2
     8     3    31    1
     9     4     5    1
    10     5     6    1
    11     5    27    2
    12     6    26   ar
    13     6     7   ar
    14     7     8   ar
    15     7    32    1
    16     8     9   ar
    17     8    33    1
    18     9    10   ar
    19     9    34    1
    20    10    11    1
    21    10    26   ar
    22    11    12   am
    23    11    35    1
    24    12    13    2
    25    12    14    1
    26    14    15    1
    27    14    36    1
    28    14    37    1
    29    15    25    1
    30    15    16    2
    31    16    17    1
    32    16    38    1
    33    17    24    1
    34    17    18    1
    35    18    19    2
    36    18    39    1
    37    19    20    1
    38    19    21    1
    39    21    22    2
    40    21    40    1
    41    22    23    1
    42    22    24    1
    43    24    25    2
    44    26    41    1
@<TRIPOS>SUBSTRUCTURE
     1 ZINC000541252362        1 TEMP              0 ****  ****    0 ROOT


##########                                Name:    ZINC001004075025
##########                DOCK_Rotatable_Bonds:                   8
##########                         Heavy_Atoms:                  25
##########                    Molecular_Weight:              349.43
##########                DOCK_Rotatable_Bonds:                   8
##########                       Formal_Charge:         -0.00999999
##########                     HBond_Acceptors:                   7
##########                        HBond_Donors:                   1
##########                         Heavy_Atoms:                  25
##########                          Grid_Score:          -33.072704
##########                     Grid_vdw_energy:          -32.405796
##########                      Grid_es_energy:           -0.666908
##########           Internal_energy_repulsive:           13.834866

@<TRIPOS>MOLECULE
ZINC001004075025
 52 54 1 0 0
SMALL
USER_CHARGES


@<TRIPOS>ATOM
      1 C1         -4.9683    3.7370   51.9335 C.3     1  ZINC001004075025   -0.1500
      2 C2         -6.1117    3.0525   51.1817 C.3     1  ZINC001004075025   -0.1200
      3 C3         -6.6987    1.9385   52.0509 C.3     1  ZINC001004075025    0.0800
      4 H4         -5.9428    1.1800   52.2542 H       1  ZINC001004075025    0.0700
      5 C5         -7.2443    2.5232   53.3781 C.3     1  ZINC001004075025   -0.1500
      6 C6         -8.3024    1.4520   53.7591 C.3     1  ZINC001004075025   -0.1400
      7 C7         -8.8314    1.0083   52.3782 C.3     1  ZINC001004075025    0.0700
      8 H8         -9.7625    1.5287   52.1542 H       1  ZINC001004075025    0.1100
      9 C9         -9.0641   -0.4806   52.3742 C.2     1  ZINC001004075025    0.5300
     10 O10        -8.4034   -1.1957   51.6511 O.2     1  ZINC001004075025   -0.5200
     11 N11       -10.0066   -1.0175   53.1741 N.am    1  ZINC001004075025   -0.6500
     12 C12       -10.5116   -2.3698   53.4555 C.3     1  ZINC001004075025    0.1100
     13 C13       -11.8554   -1.7307   53.8326 C.3     1  ZINC001004075025   -0.1400
     14 C14       -12.5265   -2.3574   55.0564 C.3     1  ZINC001004075025    0.1300
     15 N15       -11.5002   -2.8793   55.9624 N.am    1  ZINC001004075025   -0.7200
     16 C16       -11.5408   -2.5733   57.2744 C.2     1  ZINC001004075025    0.6000
     17 O17       -12.4301   -1.8653   57.7063 O.2     1  ZINC001004075025   -0.5300
     18 C18       -10.5072   -3.0970   58.1856 C.2     1  ZINC001004075025   -0.2700
     19 C19        -9.8381   -2.4401   59.1893 C.2     1  ZINC001004075025    0.0700
     20 C20       -10.0108   -0.9999   59.5980 C.3     1  ZINC001004075025   -0.0300
     21 C21        -9.4528   -0.7997   61.0085 C.3     1  ZINC001004075025   -0.1500
     22 C22        -9.2570   -0.0978   58.6187 C.3     1  ZINC001004075025   -0.1500
     23 O23        -9.0044   -3.3311   59.7306 O.3     1  ZINC001004075025    0.1000
     24 N24        -9.0681   -4.4178   59.2103 N.2     1  ZINC001004075025   -0.3500
     25 C25        -9.9424   -4.4538   58.2486 C.2     1  ZINC001004075025    0.0200
     26 C26       -10.9781   -0.5097   54.1544 C.3     1  ZINC001004075025    0.1100
     27 O27        -7.8364    1.3475   51.4031 O.3     1  ZINC001004075025   -0.3400
     28 H28        -4.5501    4.5305   51.3142 H       1  ZINC001004075025    0.0600
     29 H29        -5.3478    4.1626   52.8623 H       1  ZINC001004075025    0.0500
     30 H30        -4.1926    3.0053   52.1593 H       1  ZINC001004075025    0.0600
     31 H31        -6.8875    3.7841   50.9558 H       1  ZINC001004075025    0.0800
     32 H32        -5.7322    2.6267   50.2528 H       1  ZINC001004075025    0.0700
     33 H33        -6.4595    2.5855   54.1319 H       1  ZINC001004075025    0.0900
     34 H34        -7.7100    3.4954   53.2170 H       1  ZINC001004075025    0.0900
     35 H35        -7.8377    0.6169   54.2831 H       1  ZINC001004075025    0.0800
     36 H36        -9.1008    1.8909   54.3574 H       1  ZINC001004075025    0.0900
     37 H37       -10.5661   -3.0054   52.5718 H       1  ZINC001004075025    0.0900
     38 H38       -10.0110   -2.8544   54.2938 H       1  ZINC001004075025    0.0900
     39 H39       -12.5355   -1.5915   52.9923 H       1  ZINC001004075025    0.1100
     40 H40       -13.1174   -1.6015   55.5738 H       1  ZINC001004075025    0.0800
     41 H41       -13.1771   -3.1715   54.7371 H       1  ZINC001004075025    0.0800
     42 H42       -10.7915   -3.4451   55.6180 H       1  ZINC001004075025    0.4000
     43 H43       -11.0701   -0.7434   59.5866 H       1  ZINC001004075025    0.1300
     44 H44        -8.3935   -1.0561   61.0201 H       1  ZINC001004075025    0.0600
     45 H45        -9.5777    0.2420   61.3042 H       1  ZINC001004075025    0.0700
     46 H46        -9.9898   -1.4423   61.7063 H       1  ZINC001004075025    0.0600
     47 H47        -8.1977   -0.3543   58.6301 H       1  ZINC001004075025    0.0600
     48 H48        -9.6546   -0.2405   57.6138 H       1  ZINC001004075025    0.0600
     49 H49        -9.3819    0.9438   58.9143 H       1  ZINC001004075025    0.0700
     50 H50       -10.1952   -5.2982   57.6245 H       1  ZINC001004075025    0.2000
     51 H51       -10.6035   -0.5020   55.1780 H       1  ZINC001004075025    0.0900
     52 H52       -11.4303    0.4384   53.8634 H       1  ZINC001004075025    0.0800
@<TRIPOS>BOND
     1     1     2    1
     2     1    28    1
     3     1    29    1
     4     1    30    1
     5     2     3    1
     6     2    31    1
     7     2    32    1
     8     3     4    1
     9     3    27    1
    10     3     5    1
    11     5     6    1
    12     5    33    1
    13     5    34    1
    14     6     7    1
    15     6    35    1
    16     6    36    1
    17     7     8    1
    18     7     9    1
    19     7    27    1
    20     9    10    2
    21     9    11   am
    22    11    26    1
    23    11    12    1
    24    12    13    1
    25    12    37    1
    26    12    38    1
    27    13    14    1
    28    13    26    1
    29    13    39    1
    30    14    15    1
    31    14    40    1
    32    14    41    1
    33    15    16   am
    34    15    42    1
    35    16    17    2
    36    16    18    1
    37    18    25    1
    38    18    19    2
    39    19    20    1
    40    19    23    1
    41    20    21    1
    42    20    22    1
    43    20    43    1
    44    21    44    1
    45    21    45    1
    46    21    46    1
    47    22    47    1
    48    22    48    1
    49    22    49    1
    50    23    24    1
    51    24    25    2
    52    25    50    1
    53    26    51    1
    54    26    52    1
@<TRIPOS>SUBSTRUCTURE
     1 ZINC001004075025        1 TEMP              0 ****  ****    0 ROOT


##########                                Name:    ZINC000265724350
##########                DOCK_Rotatable_Bonds:                   8
##########                         Heavy_Atoms:                  23
##########                    Molecular_Weight:              345.42
##########                DOCK_Rotatable_Bonds:                   8
##########                       Formal_Charge:          -0.0300002
##########                     HBond_Acceptors:                   9
##########                        HBond_Donors:                   2
##########                         Heavy_Atoms:                  23
##########                          Grid_Score:          -33.066879
##########                     Grid_vdw_energy:          -32.341068
##########                      Grid_es_energy:           -0.725811
##########           Internal_energy_repulsive:            4.179246

@<TRIPOS>MOLECULE
ZINC000265724350
 46 47 1 0 0
SMALL
USER_CHARGES


@<TRIPOS>ATOM
      1 C1         -6.4568    1.7734   66.5871 C.3     1  ZINC000265724350    0.0800
      2 N2         -7.8505    1.6830   66.1446 N.am    1  ZINC000265724350   -1.1100
      3 S3         -8.3511    0.3862   65.2447 S.o2    1  ZINC000265724350    2.7200
      4 O4         -7.6764    0.4789   63.9975 O.2     1  ZINC000265724350   -0.9300
      5 O5         -8.2624   -0.7497   66.0938 O.2     1  ZINC000265724350   -0.9300
      6 C6        -10.0638    0.6189   64.9024 C.2     1  ZINC000265724350   -0.5600
      7 C7        -10.9439    1.2677   65.6965 C.2     1  ZINC000265724350   -0.0900
      8 C8        -12.1910    1.2231   65.0536 C.2     1  ZINC000265724350   -0.1400
      9 C9        -12.0062    0.5409   63.8853 C.2     1  ZINC000265724350   -0.0200
     10 C10       -13.0385    0.2489   62.8853 C.2     1  ZINC000265724350    0.6000
     11 O11       -14.1608    0.7000   63.0198 O.2     1  ZINC000265724350   -0.5000
     12 N12       -12.7443   -0.5188   61.8174 N.am    1  ZINC000265724350   -0.7100
     13 C13       -13.7751   -0.8090   60.8177 C.3     1  ZINC000265724350    0.1200
     14 C14       -13.4629   -2.1425   60.1356 C.3     1  ZINC000265724350   -0.1100
     15 H15       -13.1132   -2.8581   60.8797 H       1  ZINC000265724350    0.0800
     16 C16       -14.7284   -2.6810   59.4653 C.3     1  ZINC000265724350   -0.1400
     17 C17       -12.3761   -1.9329   59.0793 C.3     1  ZINC000265724350    0.0600
     18 N18       -11.3491   -2.9738   59.2203 N.3     1  ZINC000265724350   -0.5300
     19 C19       -10.1029   -2.4143   59.7635 C.3     1  ZINC000265724350    0.0100
     20 C20        -9.0827   -3.5405   59.9497 C.3     1  ZINC000265724350    0.0600
     21 O21        -8.8785   -4.2036   58.6991 O.3     1  ZINC000265724350   -0.3900
     22 C22       -10.0716   -4.7611   58.1415 C.3     1  ZINC000265724350    0.0600
     23 C23       -11.1018   -3.6472   57.9370 C.3     1  ZINC000265724350    0.0200
     24 O24       -10.7065    0.1872   63.8096 O.3     1  ZINC000265724350   -0.1100
     25 H25        -6.3168    2.6885   67.1625 H       1  ZINC000265724350    0.0900
     26 H26        -6.2169    0.9120   67.2105 H       1  ZINC000265724350    0.0600
     27 H27        -5.7996    1.7868   65.7175 H       1  ZINC000265724350    0.0700
     28 H28        -8.4800    2.3829   66.3787 H       1  ZINC000265724350    0.4200
     29 H29       -10.7285    1.7329   66.6470 H       1  ZINC000265724350    0.1800
     30 H30       -13.1171    1.6463   65.4135 H       1  ZINC000265724350    0.1700
     31 H31       -11.8501   -0.8793   61.7109 H       1  ZINC000265724350    0.4100
     32 H32       -14.7478   -0.8694   61.3056 H       1  ZINC000265724350    0.0800
     33 H33       -13.7915   -0.0144   60.0716 H       1  ZINC000265724350    0.0700
     34 H34       -15.5028   -2.8304   60.2179 H       1  ZINC000265724350    0.0500
     35 H35       -15.0781   -1.9654   58.7212 H       1  ZINC000265724350    0.0600
     36 H36       -14.5061   -3.6310   58.9794 H       1  ZINC000265724350    0.0700
     37 H37       -12.8192   -1.9921   58.0853 H       1  ZINC000265724350    0.0800
     38 H38       -11.9206   -0.9521   59.2164 H       1  ZINC000265724350    0.0400
     39 H39        -9.7044   -1.6730   59.0709 H       1  ZINC000265724350    0.0400
     40 H40       -10.3044   -1.9431   60.7256 H       1  ZINC000265724350    0.0900
     41 H41        -8.1385   -3.1223   60.2984 H       1  ZINC000265724350    0.1000
     42 H42        -9.4582   -4.2542   60.6831 H       1  ZINC000265724350    0.0600
     43 H43        -9.8426   -5.2256   57.1824 H       1  ZINC000265724350    0.1000
     44 H44       -10.4759   -5.5103   58.8222 H       1  ZINC000265724350    0.0600
     45 H45       -12.0326   -4.0759   57.5657 H       1  ZINC000265724350    0.0900
     46 H46       -10.7193   -2.9256   57.2151 H       1  ZINC000265724350    0.0400
@<TRIPOS>BOND
     1     1     2    1
     2     1    25    1
     3     1    26    1
     4     1    27    1
     5     2     3   am
     6     2    28    1
     7     3     4    2
     8     3     5    2
     9     3     6    1
    10     6    24    1
    11     6     7    2
    12     7     8    1
    13     7    29    1
    14     8     9    2
    15     8    30    1
    16     9    10    1
    17     9    24    1
    18    10    11    2
    19    10    12   am
    20    12    13    1
    21    12    31    1
    22    13    14    1
    23    13    32    1
    24    13    33    1
    25    14    15    1
    26    14    16    1
    27    14    17    1
    28    16    34    1
    29    16    35    1
    30    16    36    1
    31    17    18    1
    32    17    37    1
    33    17    38    1
    34    18    23    1
    35    18    19    1
    36    19    20    1
    37    19    39    1
    38    19    40    1
    39    20    21    1
    40    20    41    1
    41    20    42    1
    42    21    22    1
    43    22    23    1
    44    22    43    1
    45    22    44    1
    46    23    45    1
    47    23    46    1
@<TRIPOS>SUBSTRUCTURE
     1 ZINC000265724350        1 TEMP              0 ****  ****    0 ROOT


##########                                Name:    ZINC001400108193
##########                DOCK_Rotatable_Bonds:                   9
##########                         Heavy_Atoms:                  25
##########                    Molecular_Weight:              344.41
##########                DOCK_Rotatable_Bonds:                   9
##########                       Formal_Charge:           0.0200001
##########                     HBond_Acceptors:                   6
##########                        HBond_Donors:                   2
##########                         Heavy_Atoms:                  25
##########                          Grid_Score:          -33.039249
##########                     Grid_vdw_energy:          -31.344774
##########                      Grid_es_energy:           -1.694474
##########           Internal_energy_repulsive:            5.402933

@<TRIPOS>MOLECULE
ZINC001400108193
 49 50 1 0 0
SMALL
USER_CHARGES


@<TRIPOS>ATOM
      1 C1         -9.0709    0.5252   63.3011 C.3     1  ZINC001400108193   -0.0800
      2 C2        -10.1116   -0.2332   62.5181 C.2     1  ZINC001400108193   -0.0100
      3 C3        -11.4354   -0.0217   62.5753 C.2     1  ZINC001400108193   -0.1600
      4 C4        -12.0396   -0.9896   61.6481 C.2     1  ZINC001400108193   -0.2300
      5 C5        -13.4725   -1.1628   61.3501 C.2     1  ZINC001400108193    0.5900
      6 O6        -14.2958   -0.4441   61.8836 O.2     1  ZINC001400108193   -0.5300
      7 N7        -13.8705   -2.1176   60.4860 N.am    1  ZINC001400108193   -0.7300
      8 C8        -15.2950   -2.2908   60.1911 C.3     1  ZINC001400108193    0.1100
      9 C9        -15.4542   -3.0283   58.8600 C.3     1  ZINC001400108193    0.1300
     10 H10       -15.5240   -4.1002   59.0448 H       1  ZINC001400108193    0.1000
     11 C11       -16.7265   -2.5475   58.1594 C.3     1  ZINC001400108193   -0.1600
     12 N12       -14.2943   -2.7542   58.0080 N.am    1  ZINC001400108193   -0.7300
     13 C13       -13.7255   -3.7518   57.3027 C.2     1  ZINC001400108193    0.5200
     14 O14       -14.1748   -4.8762   57.3719 O.2     1  ZINC001400108193   -0.5100
     15 C15       -12.5313   -3.4702   56.4276 C.3     1  ZINC001400108193    0.0700
     16 H16       -12.4652   -2.3991   56.2367 H       1  ZINC001400108193    0.1000
     17 C17       -11.2588   -3.9417   57.1343 C.3     1  ZINC001400108193   -0.1800
     18 O18       -12.6739   -4.1670   55.1882 O.3     1  ZINC001400108193   -0.2800
     19 C19       -12.9351   -3.4171   54.0854 C.ar    1  ZINC001400108193    0.1200
     20 C20       -11.9040   -2.7539   53.4359 C.ar    1  ZINC001400108193   -0.2100
     21 C21       -12.1721   -1.9927   52.3148 C.ar    1  ZINC001400108193   -0.0800
     22 C22       -13.4675   -1.8873   51.8428 C.ar    1  ZINC001400108193   -0.1200
     23 C23       -13.7580   -1.0511   50.6231 C.3     1  ZINC001400108193   -0.1100
     24 C24       -14.4960   -2.5516   52.4852 C.ar    1  ZINC001400108193   -0.0800
     25 C25       -14.2332   -3.3141   53.6067 C.ar    1  ZINC001400108193   -0.1400
     26 C26       -10.9972   -1.6980   61.1261 C.2     1  ZINC001400108193    0.0200
     27 O27        -9.8622   -1.2279   61.6524 O.3     1  ZINC001400108193   -0.1700
     28 H28        -8.8963    0.0243   64.2533 H       1  ZINC001400108193    0.0900
     29 H29        -8.1416    0.5589   62.7325 H       1  ZINC001400108193    0.0800
     30 H30        -9.4222    1.5408   63.4837 H       1  ZINC001400108193    0.0900
     31 H31       -11.9515    0.7103   63.1787 H       1  ZINC001400108193    0.1600
     32 H32       -13.2137   -2.6900   60.0596 H       1  ZINC001400108193    0.4000
     33 H33       -15.7737   -1.3138   60.1246 H       1  ZINC001400108193    0.0800
     34 H34       -15.7627   -2.8712   60.9862 H       1  ZINC001400108193    0.0900
     35 H35       -16.8400   -3.0730   57.2113 H       1  ZINC001400108193    0.0700
     36 H36       -17.5895   -2.7515   58.7934 H       1  ZINC001400108193    0.0700
     37 H37       -16.6567   -1.4756   57.9748 H       1  ZINC001400108193    0.0600
     38 H38       -13.9357   -1.8547   57.9517 H       1  ZINC001400108193    0.4000
     39 H39       -11.1499   -3.4103   58.0797 H       1  ZINC001400108193    0.0800
     40 H40       -11.3249   -5.0129   57.3251 H       1  ZINC001400108193    0.0800
     41 H41       -10.3950   -3.7381   56.5014 H       1  ZINC001400108193    0.0800
     42 H42       -10.8928   -2.8323   53.8070 H       1  ZINC001400108193    0.1300
     43 H43       -11.3699   -1.4758   51.8091 H       1  ZINC001400108193    0.1300
     44 H44       -13.6766   -1.6707   49.7301 H       1  ZINC001400108193    0.0700
     45 H45       -14.7671   -0.6451   50.6929 H       1  ZINC001400108193    0.0700
     46 H46       -13.0403   -0.2328   50.5642 H       1  ZINC001400108193    0.0700
     47 H47       -15.5063   -2.4710   52.1122 H       1  ZINC001400108193    0.1300
     48 H48       -15.0375   -3.8297   54.1103 H       1  ZINC001400108193    0.1300
     49 H49       -11.0757   -2.5005   60.4074 H       1  ZINC001400108193    0.2100
@<TRIPOS>BOND
     1     1     2    1
     2     1    28    1
     3     1    29    1
     4     1    30    1
     5     2    27    1
     6     2     3    2
     7     3     4    1
     8     3    31    1
     9     4     5    1
    10     4    26    2
    11     5     6    2
    12     5     7   am
    13     7     8    1
    14     7    32    1
    15     8     9    1
    16     8    33    1
    17     8    34    1
    18     9    10    1
    19     9    11    1
    20     9    12    1
    21    11    35    1
    22    11    36    1
    23    11    37    1
    24    12    13   am
    25    12    38    1
    26    13    14    2
    27    13    15    1
    28    15    16    1
    29    15    17    1
    30    15    18    1
    31    17    39    1
    32    17    40    1
    33    17    41    1
    34    18    19    1
    35    19    25   ar
    36    19    20   ar
    37    20    21   ar
    38    20    42    1
    39    21    22   ar
    40    21    43    1
    41    22    23    1
    42    22    24   ar
    43    23    44    1
    44    23    45    1
    45    23    46    1
    46    24    25   ar
    47    24    47    1
    48    25    48    1
    49    26    27    1
    50    26    49    1
@<TRIPOS>SUBSTRUCTURE
     1 ZINC001400108193        1 TEMP              0 ****  ****    0 ROOT


##########                                Name:    ZINC001122903793
##########                DOCK_Rotatable_Bonds:                   4
##########                         Heavy_Atoms:                  25
##########                    Molecular_Weight:             399.968
##########                DOCK_Rotatable_Bonds:                   4
##########                       Formal_Charge:           0.0100003
##########                     HBond_Acceptors:                   9
##########                        HBond_Donors:                   0
##########                         Heavy_Atoms:                  25
##########                          Grid_Score:          -33.038651
##########                     Grid_vdw_energy:          -33.274105
##########                      Grid_es_energy:            0.235454
##########           Internal_energy_repulsive:           17.558836

@<TRIPOS>MOLECULE
ZINC001122903793
 47 50 1 0 0
SMALL
USER_CHARGES


@<TRIPOS>ATOM
      1 C1        -10.2867    0.8010   61.9976 C.3     1  ZINC001122903793   -0.1400
      2 C2        -10.3620   -0.5577   61.2981 C.3     1  ZINC001122903793   -0.0400
      3 H3        -11.2709   -1.0765   61.6028 H       1  ZINC001122903793    0.1000
      4 S4         -8.9090   -1.5565   61.7450 S.3     1  ZINC001122903793   -0.2500
      5 C5         -9.0632   -2.9715   60.6124 C.3     1  ZINC001122903793   -0.0800
      6 C6         -9.2446   -2.4366   59.1878 C.3     1  ZINC001122903793    0.0700
      7 N7        -10.4774   -1.6504   59.1046 N.3     1  ZINC001122903793   -0.4800
      8 C8        -10.8769   -1.4912   57.7877 C.2     1  ZINC001122903793    0.3700
      9 N9        -10.3825   -0.6368   56.9225 N.2     1  ZINC001122903793   -0.2900
     10 N10       -10.9815   -0.7549   55.7918 N.2     1  ZINC001122903793   -0.2400
     11 C11       -11.8979   -1.6948   55.8659 C.2     1  ZINC001122903793    0.2600
     12 C12       -12.7959   -2.1296   54.7836 C.2     1  ZINC001122903793   -0.1600
     13 C13       -12.4197   -2.7069   53.6178 C.2     1  ZINC001122903793    0.1600
     14 Cl14      -10.7618   -3.0289   53.2160 Cl      1  ZINC001122903793    0.0300
     15 N15       -13.4192   -3.0020   52.8168 N.2     1  ZINC001122903793   -0.4600
     16 C16       -14.6105   -2.7145   53.2251 C.2     1  ZINC001122903793    0.0300
     17 S17       -14.5531   -1.9992   54.7766 S.3     1  ZINC001122903793    0.2200
     18 N18       -11.8548   -2.1986   57.1466 N.pl3   1  ZINC001122903793   -0.4600
     19 C19       -12.6884   -3.2650   57.7072 C.3     1  ZINC001122903793    0.1100
     20 C20       -13.8991   -2.6492   58.4112 C.3     1  ZINC001122903793    0.0700
     21 H21       -14.2512   -1.7757   57.8625 H       1  ZINC001122903793    0.0800
     22 C22       -15.0345   -3.6954   58.5425 C.3     1  ZINC001122903793   -0.1500
     23 C23       -15.8104   -3.1363   59.7662 C.3     1  ZINC001122903793   -0.1500
     24 C24       -14.6777   -2.5339   60.6251 C.3     1  ZINC001122903793    0.0500
     25 O25       -13.5613   -2.2879   59.7598 O.3     1  ZINC001122903793   -0.3700
     26 C26       -10.3695   -0.3549   59.7791 C.3     1  ZINC001122903793    0.1000
     27 H27        -9.4425    0.1337   59.4787 H       1  ZINC001122903793    0.0800
     28 C28       -11.5582    0.5241   59.3850 C.3     1  ZINC001122903793   -0.1500
     29 H29       -11.1548    1.3999   61.7226 H       1  ZINC001122903793    0.0800
     30 H30       -10.2744    0.6534   63.0776 H       1  ZINC001122903793    0.0700
     31 H31        -9.3770    1.3175   61.6911 H       1  ZINC001122903793    0.0700
     32 H32        -8.1609   -3.5809   60.6627 H       1  ZINC001122903793    0.1200
     33 H33        -9.9296   -3.5712   60.8915 H       1  ZINC001122903793    0.0900
     34 H34        -8.3946   -1.8062   58.9267 H       1  ZINC001122903793    0.0700
     35 H35        -9.3008   -3.2732   58.4913 H       1  ZINC001122903793    0.0900
     36 H36       -15.5154   -2.9035   52.6669 H       1  ZINC001122903793    0.2100
     37 H37       -13.0287   -3.9197   56.9049 H       1  ZINC001122903793    0.1200
     38 H38       -12.1056   -3.8425   58.4248 H       1  ZINC001122903793    0.1000
     39 H39       -15.6622   -3.7078   57.6516 H       1  ZINC001122903793    0.0900
     40 H40       -14.6328   -4.6869   58.7517 H       1  ZINC001122903793    0.0800
     41 H41       -16.5161   -2.3648   59.4585 H       1  ZINC001122903793    0.0800
     42 H42       -16.3192   -3.9377   60.3021 H       1  ZINC001122903793    0.0900
     43 H43       -15.0108   -1.5972   61.0720 H       1  ZINC001122903793    0.0700
     44 H44       -14.3926   -3.2375   61.4072 H       1  ZINC001122903793    0.0700
     45 H45       -12.4860    0.0351   59.6824 H       1  ZINC001122903793    0.0600
     46 H46       -11.4790    1.4886   59.8865 H       1  ZINC001122903793    0.0800
     47 H47       -11.5567    0.6745   58.3055 H       1  ZINC001122903793    0.0600
@<TRIPOS>BOND
     1     1     2    1
     2     1    29    1
     3     1    30    1
     4     1    31    1
     5     2     3    1
     6     2    26    1
     7     2     4    1
     8     4     5    1
     9     5     6    1
    10     5    32    1
    11     5    33    1
    12     6     7    1
    13     6    34    1
    14     6    35    1
    15     7     8    1
    16     7    26    1
    17     8    18    1
    18     8     9    2
    19     9    10    1
    20    10    11    2
    21    11    12    1
    22    11    18    1
    23    12    17    1
    24    12    13    2
    25    13    14    1
    26    13    15    1
    27    15    16    2
    28    16    17    1
    29    16    36    1
    30    18    19    1
    31    19    20    1
    32    19    37    1
    33    19    38    1
    34    20    21    1
    35    20    25    1
    36    20    22    1
    37    22    23    1
    38    22    39    1
    39    22    40    1
    40    23    24    1
    41    23    41    1
    42    23    42    1
    43    24    25    1
    44    24    43    1
    45    24    44    1
    46    26    27    1
    47    26    28    1
    48    28    45    1
    49    28    46    1
    50    28    47    1
@<TRIPOS>SUBSTRUCTURE
     1 ZINC001122903793        1 TEMP              0 ****  ****    0 ROOT


##########                                Name:    ZINC000373864439
##########                DOCK_Rotatable_Bonds:                   7
##########                         Heavy_Atoms:                  23
##########                    Molecular_Weight:              344.45
##########                DOCK_Rotatable_Bonds:                   7
##########                       Formal_Charge:          -0.0300001
##########                     HBond_Acceptors:                   7
##########                        HBond_Donors:                   1
##########                         Heavy_Atoms:                  23
##########                          Grid_Score:          -33.038319
##########                     Grid_vdw_energy:          -32.261513
##########                      Grid_es_energy:           -0.776805
##########           Internal_energy_repulsive:           19.784849

@<TRIPOS>MOLECULE
ZINC000373864439
 48 49 1 0 0
SMALL
USER_CHARGES


@<TRIPOS>ATOM
      1 C1         -5.8665    2.4546   66.5428 C.3     1  ZINC000373864439   -0.1500
      2 C2         -6.8895    1.8838   65.5585 C.3     1  ZINC000373864439   -0.6300
      3 S3         -7.9644    0.7037   66.4201 S.o2    1  ZINC000373864439    2.6100
      4 O4         -7.1948   -0.1651   67.2400 O.2     1  ZINC000373864439   -0.9500
      5 O5         -9.1184    1.3591   66.9280 O.2     1  ZINC000373864439   -0.9600
      6 N6         -8.5469   -0.2772   65.2197 N.am    1  ZINC000373864439   -1.1200
      7 C7         -9.3282    0.2953   64.1206 C.3     1  ZINC000373864439    0.1100
      8 C8         -8.8000   -0.2383   62.7875 C.3     1  ZINC000373864439    0.0500
      9 N9         -9.9047   -0.8390   62.0281 N.3     1  ZINC000373864439   -0.5300
     10 C10        -9.3978   -1.7424   60.9873 C.3     1  ZINC000373864439    0.0400
     11 C11       -10.5716   -2.4586   60.3155 C.3     1  ZINC000373864439   -0.1300
     12 C12       -11.5133   -1.4192   59.7012 C.3     1  ZINC000373864439    0.1800
     13 F13       -10.8334   -0.6985   58.7134 F       1  ZINC000373864439   -0.2100
     14 C14       -12.7013   -2.1155   59.0888 C.ar    1  ZINC000373864439   -0.1500
     15 C15       -13.9462   -2.0043   59.6765 C.ar    1  ZINC000373864439   -0.0700
     16 C16       -15.0367   -2.6433   59.1152 C.ar    1  ZINC000373864439   -0.1600
     17 C17       -14.8839   -3.3944   57.9648 C.ar    1  ZINC000373864439   -0.0700
     18 C18       -13.6407   -3.5084   57.3728 C.ar    1  ZINC000373864439   -0.2100
     19 C19       -12.5464   -2.8640   57.9308 C.ar    1  ZINC000373864439    0.1400
     20 O20       -11.3225   -2.9745   57.3504 O.3     1  ZINC000373864439   -0.3100
     21 C21       -10.9273   -4.2762   56.9129 C.3     1  ZINC000373864439    0.0200
     22 C22       -11.9887   -0.4616   60.7973 C.3     1  ZINC000373864439   -0.1300
     23 C23       -10.7738    0.1966   61.4550 C.3     1  ZINC000373864439    0.0600
     24 H24        -5.2627    1.6437   66.9503 H       1  ZINC000373864439    0.0700
     25 H25        -5.2207    3.1637   66.0251 H       1  ZINC000373864439    0.0800
     26 H26        -6.3874    2.9629   67.3542 H       1  ZINC000373864439    0.0700
     27 H27        -7.4933    2.6947   65.1511 H       1  ZINC000373864439    0.1300
     28 H28        -6.3686    1.3755   64.7471 H       1  ZINC000373864439    0.1300
     29 H29        -8.3709   -1.2308   65.2443 H       1  ZINC000373864439    0.4200
     30 H30       -10.3754    0.0152   64.2348 H       1  ZINC000373864439    0.0700
     31 H31        -9.2386    1.3815   64.1382 H       1  ZINC000373864439    0.0900
     32 H32        -8.3681    0.5815   62.2134 H       1  ZINC000373864439    0.0900
     33 H33        -8.0358   -0.9926   62.9752 H       1  ZINC000373864439    0.0400
     34 H34        -8.8494   -1.1663   60.2420 H       1  ZINC000373864439    0.0400
     35 H35        -8.7328   -2.4791   61.4381 H       1  ZINC000373864439    0.0900
     36 H36       -10.1961   -3.1173   59.5325 H       1  ZINC000373864439    0.0800
     37 H37       -11.1124   -3.0459   61.0577 H       1  ZINC000373864439    0.1000
     38 H38       -14.0682   -1.4181   60.5754 H       1  ZINC000373864439    0.1300
     39 H39       -16.0091   -2.5557   59.5768 H       1  ZINC000373864439    0.1300
     40 H40       -15.7369   -3.8928   57.5286 H       1  ZINC000373864439    0.1300
     41 H41       -13.5218   -4.0956   56.4742 H       1  ZINC000373864439    0.1300
     42 H42        -9.9329   -4.2241   56.4694 H       1  ZINC000373864439    0.1000
     43 H43       -10.9099   -4.9562   57.7647 H       1  ZINC000373864439    0.0600
     44 H44       -11.6373   -4.6414   56.1709 H       1  ZINC000373864439    0.0600
     45 H45       -12.6257    0.3064   60.3584 H       1  ZINC000373864439    0.0800
     46 H46       -12.5518   -1.0175   61.5470 H       1  ZINC000373864439    0.1000
     47 H47       -11.1083    0.8684   62.2456 H       1  ZINC000373864439    0.0800
     48 H48       -10.2190    0.7637   60.7076 H       1  ZINC000373864439    0.0400
@<TRIPOS>BOND
     1     1     2    1
     2     1    24    1
     3     1    25    1
     4     1    26    1
     5     2     3    1
     6     2    27    1
     7     2    28    1
     8     3     4    2
     9     3     5    2
    10     3     6   am
    11     6     7    1
    12     6    29    1
    13     7     8    1
    14     7    30    1
    15     7    31    1
    16     8     9    1
    17     8    32    1
    18     8    33    1
    19     9    23    1
    20     9    10    1
    21    10    11    1
    22    10    34    1
    23    10    35    1
    24    11    12    1
    25    11    36    1
    26    11    37    1
    27    12    13    1
    28    12    14    1
    29    12    22    1
    30    14    19   ar
    31    14    15   ar
    32    15    16   ar
    33    15    38    1
    34    16    17   ar
    35    16    39    1
    36    17    18   ar
    37    17    40    1
    38    18    19   ar
    39    18    41    1
    40    19    20    1
    41    20    21    1
    42    21    42    1
    43    21    43    1
    44    21    44    1
    45    22    23    1
    46    22    45    1
    47    22    46    1
    48    23    47    1
    49    23    48    1
@<TRIPOS>SUBSTRUCTURE
     1 ZINC000373864439        1 TEMP              0 ****  ****    0 ROOT


##########                                Name:    ZINC000512239524
##########                DOCK_Rotatable_Bonds:                   9
##########                         Heavy_Atoms:                  31
##########                    Molecular_Weight:             424.518
##########                DOCK_Rotatable_Bonds:                   9
##########                       Formal_Charge:          0.00999919
##########                     HBond_Acceptors:                   7
##########                        HBond_Donors:                   1
##########                         Heavy_Atoms:                  31
##########                          Grid_Score:          -33.037712
##########                     Grid_vdw_energy:          -32.112602
##########                      Grid_es_energy:           -0.925108
##########           Internal_energy_repulsive:           24.551344

@<TRIPOS>MOLECULE
ZINC000512239524
 60 63 1 0 0
SMALL
USER_CHARGES


@<TRIPOS>ATOM
      1 C1        -12.5792   -4.0802   57.2078 C.3     1  ZINC000512239524   -0.1600
      2 C2        -11.2813   -3.5307   56.6123 C.3     1  ZINC000512239524    0.2000
      3 H3        -10.7204   -4.3436   56.1513 H       1  ZINC000512239524    0.1100
      4 N4        -11.5980   -2.5203   55.5999 N.am    1  ZINC000512239524   -0.7400
      5 C5        -11.5896   -2.8499   54.2931 C.2     1  ZINC000512239524    0.7100
      6 O6        -11.3191   -3.9860   53.9545 O.2     1  ZINC000512239524   -0.5800
      7 N7        -11.8810   -1.9204   53.3617 N.am    1  ZINC000512239524   -0.6300
      8 C8        -11.8817   -2.2661   51.9337 C.3     1  ZINC000512239524    0.1300
      9 C9        -13.2281   -1.8570   51.3281 C.3     1  ZINC000512239524   -0.1100
     10 C10       -13.4836   -0.3759   51.6164 C.3     1  ZINC000512239524   -0.1000
     11 C11       -14.7914    0.0386   50.9928 C.2     1  ZINC000512239524    0.5300
     12 O12       -15.8320   -0.1431   51.5888 O.2     1  ZINC000512239524   -0.5300
     13 N13       -14.8048    0.6111   49.7727 N.am    1  ZINC000512239524   -0.5800
     14 C14       -16.0761    1.0156   49.1673 C.3     1  ZINC000512239524    0.1500
     15 C15       -16.3234    0.1985   47.9253 C.ar    1  ZINC000512239524   -0.1100
     16 C16       -16.2443    0.7930   46.6798 C.ar    1  ZINC000512239524   -0.0900
     17 C17       -16.4712    0.0435   45.5407 C.ar    1  ZINC000512239524   -0.1200
     18 C18       -16.7767   -1.3005   45.6469 C.ar    1  ZINC000512239524   -0.1100
     19 C19       -16.8549   -1.8951   46.8924 C.ar    1  ZINC000512239524   -0.1200
     20 C20       -16.6238   -1.1467   48.0314 C.ar    1  ZINC000512239524   -0.1100
     21 C21       -13.5481    0.8290   49.0521 C.3     1  ZINC000512239524    0.0700
     22 C22       -13.4829    2.0156   48.0885 C.3     1  ZINC000512239524   -0.1900
     23 C23       -12.7291    2.0681   49.4188 C.3     1  ZINC000512239524   -0.2000
     24 C24       -13.5466   -0.1523   53.1291 C.3     1  ZINC000512239524   -0.1400
     25 C25       -12.2098   -0.5436   53.7555 C.3     1  ZINC000512239524    0.1100
     26 C26       -10.4530   -2.9050   57.7047 C.ar    1  ZINC000512239524   -0.0800
     27 C27       -10.5560   -1.5520   57.9866 C.ar    1  ZINC000512239524   -0.1400
     28 C28        -9.7806   -1.0128   58.9961 C.ar    1  ZINC000512239524    0.1000
     29 N29        -8.9502   -1.7687   59.6871 N.ar    1  ZINC000512239524   -0.4600
     30 C30        -8.8246   -3.0595   59.4481 C.ar    1  ZINC000512239524    0.0800
     31 C31        -9.5721   -3.6713   58.4568 C.ar    1  ZINC000512239524    0.0600
     32 F32        -9.4388   -4.9941   58.2169 F       1  ZINC000512239524   -0.1200
     33 H33       -13.1784   -4.5329   56.4178 H       1  ZINC000512239524    0.0700
     34 H34       -12.3435   -4.8321   57.9611 H       1  ZINC000512239524    0.0700
     35 H35       -13.1401   -3.2673   57.6688 H       1  ZINC000512239524    0.0600
     36 H36       -11.8138   -1.6140   55.8701 H       1  ZINC000512239524    0.3900
     37 H37       -11.0766   -1.7329   51.4283 H       1  ZINC000512239524    0.0700
     38 H38       -11.7403   -3.3407   51.8178 H       1  ZINC000512239524    0.1000
     39 H39       -13.2067   -2.0195   50.2505 H       1  ZINC000512239524    0.0900
     40 H40       -14.0234   -2.4564   51.7711 H       1  ZINC000512239524    0.0800
     41 H41       -12.6749    0.2210   51.1946 H       1  ZINC000512239524    0.1000
     42 H42       -16.8858    0.8503   49.8780 H       1  ZINC000512239524    0.0900
     43 H43       -16.0333    2.0724   48.9043 H       1  ZINC000512239524    0.1000
     44 H44       -16.0057    1.8430   46.5968 H       1  ZINC000512239524    0.1300
     45 H45       -16.4101    0.5081   44.5676 H       1  ZINC000512239524    0.1200
     46 H46       -16.9546   -1.8859   44.7569 H       1  ZINC000512239524    0.1200
     47 H47       -17.0938   -2.9451   46.9755 H       1  ZINC000512239524    0.1200
     48 H48       -16.6849   -1.6113   49.0045 H       1  ZINC000512239524    0.1200
     49 H49       -13.0008   -0.0730   48.7780 H       1  ZINC000512239524    0.1300
     50 H50       -12.8927    1.8944   47.1801 H       1  ZINC000512239524    0.1100
     51 H51       -14.3749    2.6342   47.9907 H       1  ZINC000512239524    0.1000
     52 H52       -13.1252    2.7212   50.1964 H       1  ZINC000512239524    0.1100
     53 H53       -11.6430    1.9815   49.3857 H       1  ZINC000512239524    0.1000
     54 H54       -13.7518    0.8985   53.3333 H       1  ZINC000512239524    0.0900
     55 H55       -14.3389   -0.7678   53.5552 H       1  ZINC000512239524    0.0700
     56 H56       -12.2825   -0.4801   54.8411 H       1  ZINC000512239524    0.0800
     57 H57       -11.4288    0.1284   53.3995 H       1  ZINC000512239524    0.0800
     58 H58       -11.2334   -0.9264   57.4244 H       1  ZINC000512239524    0.1400
     59 H59        -9.8556    0.0408   59.2214 H       1  ZINC000512239524    0.1700
     60 H60        -8.1335   -3.6464   60.0350 H       1  ZINC000512239524    0.1700
@<TRIPOS>BOND
     1     1     2    1
     2     1    33    1
     3     1    34    1
     4     1    35    1
     5     2     3    1
     6     2     4    1
     7     2    26    1
     8     4     5   am
     9     4    36    1
    10     5     6    2
    11     5     7   am
    12     7    25    1
    13     7     8    1
    14     8     9    1
    15     8    37    1
    16     8    38    1
    17     9    10    1
    18     9    39    1
    19     9    40    1
    20    10    11    1
    21    10    24    1
    22    10    41    1
    23    11    12    2
    24    11    13   am
    25    13    14    1
    26    13    21    1
    27    14    15    1
    28    14    42    1
    29    14    43    1
    30    15    20   ar
    31    15    16   ar
    32    16    17   ar
    33    16    44    1
    34    17    18   ar
    35    17    45    1
    36    18    19   ar
    37    18    46    1
    38    19    20   ar
    39    19    47    1
    40    20    48    1
    41    21    23    1
    42    21    22    1
    43    21    49    1
    44    22    23    1
    45    22    50    1
    46    22    51    1
    47    23    52    1
    48    23    53    1
    49    24    25    1
    50    24    54    1
    51    24    55    1
    52    25    56    1
    53    25    57    1
    54    26    31   ar
    55    26    27   ar
    56    27    28   ar
    57    27    58    1
    58    28    29   ar
    59    28    59    1
    60    29    30   ar
    61    30    31   ar
    62    30    60    1
    63    31    32    1
@<TRIPOS>SUBSTRUCTURE
     1 ZINC000512239524        1 TEMP              0 ****  ****    0 ROOT


##########                                Name:    ZINC000188380122
##########                DOCK_Rotatable_Bonds:                   6
##########                         Heavy_Atoms:                  27
##########                    Molecular_Weight:             396.433
##########                DOCK_Rotatable_Bonds:                   6
##########                       Formal_Charge:           0.0299998
##########                     HBond_Acceptors:                   8
##########                        HBond_Donors:                   1
##########                         Heavy_Atoms:                  27
##########                          Grid_Score:          -33.029560
##########                     Grid_vdw_energy:          -33.055702
##########                      Grid_es_energy:            0.026144
##########           Internal_energy_repulsive:            9.793356

@<TRIPOS>MOLECULE
ZINC000188380122
 46 49 1 0 0
SMALL
USER_CHARGES


@<TRIPOS>ATOM
      1 O1        -10.6059   -5.3954   57.4462 O.2     1  ZINC000188380122   -0.5200
      2 C2        -11.3114   -4.4343   57.2240 C.2     1  ZINC000188380122    0.5200
      3 C3        -12.6037   -4.6070   56.4681 C.3     1  ZINC000188380122   -0.0700
      4 C4        -12.4683   -3.9983   55.0961 C.2     1  ZINC000188380122    0.0900
      5 C5        -11.2930   -3.9310   54.4618 C.2     1  ZINC000188380122   -0.2400
      6 S6        -11.5534   -3.1581   52.8994 S.3     1  ZINC000188380122    0.1000
      7 C7        -13.2686   -2.9993   53.2695 C.2     1  ZINC000188380122    0.1100
      8 C8        -14.2852   -2.3936   52.3829 C.ar    1  ZINC000188380122   -0.0200
      9 C9        -15.6339   -2.4258   52.7391 C.ar    1  ZINC000188380122   -0.0400
     10 C10       -16.5777   -1.8584   51.9076 C.ar    1  ZINC000188380122   -0.1200
     11 C11       -16.1892   -1.2588   50.7230 C.ar    1  ZINC000188380122   -0.0600
     12 C12       -14.8532   -1.2236   50.3641 C.ar    1  ZINC000188380122   -0.1800
     13 C13       -14.4390   -0.5679   49.0719 C.3     1  ZINC000188380122    0.5100
     14 F14       -13.2796   -1.1831   48.5875 F       1  ZINC000188380122   -0.1700
     15 F15       -15.4657   -0.7013   48.1311 F       1  ZINC000188380122   -0.1700
     16 F16       -14.1870    0.7896   49.2978 F       1  ZINC000188380122   -0.1700
     17 C17       -13.8993   -1.7822   51.1892 C.ar    1  ZINC000188380122   -0.0500
     18 N18       -13.4981   -3.5062   54.4469 N.2     1  ZINC000188380122   -0.4300
     19 N19       -10.9426   -3.2128   57.6579 N.am    1  ZINC000188380122   -0.7200
     20 C20        -9.6864   -3.0450   58.3927 C.3     1  ZINC000188380122    0.1300
     21 H21        -8.8665   -3.6243   57.9682 H       1  ZINC000188380122    0.1200
     22 C22        -9.8352   -3.2102   59.9156 C.3     1  ZINC000188380122   -0.1800
     23 C23        -8.8444   -2.0473   60.0441 C.3     1  ZINC000188380122    0.0900
     24 H24        -7.8109   -2.3926   60.0129 H       1  ZINC000188380122    0.1200
     25 O25        -9.0651   -1.1827   61.1300 O.3     1  ZINC000188380122   -0.3700
     26 C26       -10.2166   -0.3594   61.1426 C.3     1  ZINC000188380122    0.0700
     27 C27       -10.3895    0.3564   59.8038 C.3     1  ZINC000188380122   -0.1600
     28 C28       -10.5647   -0.6966   58.7052 C.3     1  ZINC000188380122   -0.1100
     29 C29        -9.3242   -1.5718   58.6702 C.3     1  ZINC000188380122   -0.1500
     30 H30        -8.5346   -1.1766   58.0310 H       1  ZINC000188380122    0.0900
     31 H31       -12.8303   -5.6691   56.3736 H       1  ZINC000188380122    0.1100
     32 H32       -13.4097   -4.1102   57.0080 H       1  ZINC000188380122    0.1100
     33 H33       -10.3472   -4.2883   54.8416 H       1  ZINC000188380122    0.1800
     34 H34       -15.9386   -2.8942   53.6633 H       1  ZINC000188380122    0.1500
     35 H35       -17.6219   -1.8825   52.1820 H       1  ZINC000188380122    0.1400
     36 H36       -16.9318   -0.8167   50.0754 H       1  ZINC000188380122    0.1500
     37 H37       -12.8569   -1.7540   50.9080 H       1  ZINC000188380122    0.1400
     38 H38       -11.5089   -2.4448   57.4835 H       1  ZINC000188380122    0.4000
     39 H39       -10.8338   -2.9781   60.2861 H       1  ZINC000188380122    0.0900
     40 H40        -9.4506   -4.1576   60.2933 H       1  ZINC000188380122    0.0800
     41 H41       -11.0951   -0.9749   61.3359 H       1  ZINC000188380122    0.0500
     42 H42       -10.1181    0.3822   61.9353 H       1  ZINC000188380122    0.1000
     43 H43       -11.2716    0.9957   59.8420 H       1  ZINC000188380122    0.0800
     44 H44        -9.5061    0.9599   59.5947 H       1  ZINC000188380122    0.0800
     45 H45       -11.4390   -1.3099   58.9231 H       1  ZINC000188380122    0.0700
     46 H46       -10.6932   -0.2023   57.7424 H       1  ZINC000188380122    0.0800
@<TRIPOS>BOND
     1     1     2    2
     2     2     3    1
     3     2    19   am
     4     3     4    1
     5     3    31    1
     6     3    32    1
     7     4    18    1
     8     4     5    2
     9     5     6    1
    10     5    33    1
    11     6     7    1
    12     7     8    1
    13     7    18    2
    14     8    17   ar
    15     8     9   ar
    16     9    10   ar
    17     9    34    1
    18    10    11   ar
    19    10    35    1
    20    11    12   ar
    21    11    36    1
    22    12    13    1
    23    12    17   ar
    24    13    14    1
    25    13    15    1
    26    13    16    1
    27    17    37    1
    28    19    20    1
    29    19    38    1
    30    20    21    1
    31    20    29    1
    32    20    22    1
    33    22    23    1
    34    22    39    1
    35    22    40    1
    36    23    24    1
    37    23    29    1
    38    23    25    1
    39    25    26    1
    40    26    27    1
    41    26    41    1
    42    26    42    1
    43    27    28    1
    44    27    43    1
    45    27    44    1
    46    28    29    1
    47    28    45    1
    48    28    46    1
    49    29    30    1
@<TRIPOS>SUBSTRUCTURE
     1 ZINC000188380122        1 TEMP              0 ****  ****    0 ROOT


##########                                Name:    ZINC000655982608
##########                DOCK_Rotatable_Bonds:                   5
##########                         Heavy_Atoms:                  29
##########                    Molecular_Weight:             388.469
##########                DOCK_Rotatable_Bonds:                   5
##########                       Formal_Charge:          -0.0200006
##########                     HBond_Acceptors:                   6
##########                        HBond_Donors:                   0
##########                         Heavy_Atoms:                  29
##########                          Grid_Score:          -33.024513
##########                     Grid_vdw_energy:          -32.347149
##########                      Grid_es_energy:           -0.677364
##########           Internal_energy_repulsive:           20.204473

@<TRIPOS>MOLECULE
ZINC000655982608
 53 57 1 0 0
SMALL
USER_CHARGES


@<TRIPOS>ATOM
      1 C1        -10.7527   -1.1925   58.5235 C.3     1  ZINC000655982608   -0.1900
      2 C2        -11.0656   -2.5218   59.2135 C.3     1  ZINC000655982608    0.0800
      3 H3        -12.1446   -2.6745   59.2358 H       1  ZINC000655982608    0.1000
      4 C4        -10.4043   -3.6652   58.4413 C.3     1  ZINC000655982608   -0.0300
      5 C5        -11.3544   -4.1760   57.3890 C.2     1  ZINC000655982608    0.2000
      6 N6        -11.6382   -3.5984   56.2465 N.2     1  ZINC000655982608   -0.4800
      7 C7        -12.5253   -4.4085   55.6417 C.2     1  ZINC000655982608    0.1700
      8 C8        -13.1622   -4.1858   54.2942 C.3     1  ZINC000655982608   -0.0100
      9 H9        -12.9905   -5.0390   53.6380 H       1  ZINC000655982608    0.1300
     10 C10       -14.6739   -3.8939   54.4382 C.3     1  ZINC000655982608   -0.1400
     11 C11       -14.9550   -2.8583   53.3719 C.2     1  ZINC000655982608    0.5200
     12 O12       -16.0582   -2.5646   52.9623 O.2     1  ZINC000655982608   -0.5000
     13 N13       -13.8041   -2.3105   52.9447 N.am    1  ZINC000655982608   -0.5600
     14 C14       -13.7185   -1.3249   51.9553 C.ar    1  ZINC000655982608    0.1600
     15 C15       -13.0142   -0.1530   52.1995 C.ar    1  ZINC000655982608   -0.1600
     16 C16       -12.9316    0.8180   51.2208 C.ar    1  ZINC000655982608   -0.0900
     17 C17       -13.5496    0.6246   49.9990 C.ar    1  ZINC000655982608   -0.1400
     18 C18       -14.2520   -0.5408   49.7528 C.ar    1  ZINC000655982608   -0.0900
     19 C19       -14.3328   -1.5186   50.7250 C.ar    1  ZINC000655982608   -0.1600
     20 C20       -12.6484   -2.8797   53.6489 C.3     1  ZINC000655982608    0.1100
     21 N21       -12.7319   -5.4186   56.4326 N.2     1  ZINC000655982608   -0.3700
     22 O22       -12.0644   -5.3072   57.4393 O.3     1  ZINC000655982608    0.0900
     23 N23       -10.5465   -2.4943   60.5875 N.3     1  ZINC000655982608   -0.4700
     24 C24        -9.0742   -2.3532   60.5952 C.3     1  ZINC000655982608    0.0300
     25 C25        -8.8163   -1.5716   61.9039 C.3     1  ZINC000655982608   -0.0800
     26 C26       -10.1214   -0.8308   62.1165 C.ar    1  ZINC000655982608   -0.1400
     27 C27       -10.4450    0.2390   62.9237 C.ar    1  ZINC000655982608   -0.0800
     28 C28       -11.7352    0.7386   62.9286 C.ar    1  ZINC000655982608   -0.1400
     29 C29       -12.6997    0.1634   62.1222 C.ar    1  ZINC000655982608   -0.0900
     30 C30       -12.3816   -0.9087   61.3143 C.ar    1  ZINC000655982608   -0.1400
     31 C31       -11.0851   -1.4197   61.3060 C.ar    1  ZINC000655982608    0.1000
     32 H32       -11.2328   -1.1692   57.5452 H       1  ZINC000655982608    0.0700
     33 H33       -11.1282   -0.3700   59.1322 H       1  ZINC000655982608    0.0700
     34 H34        -9.6743   -1.0914   58.4015 H       1  ZINC000655982608    0.0700
     35 H35        -9.4941   -3.3026   57.9639 H       1  ZINC000655982608    0.1200
     36 H36       -10.1565   -4.4730   59.1299 H       1  ZINC000655982608    0.1100
     37 H37       -15.2559   -4.7973   54.2555 H       1  ZINC000655982608    0.1200
     38 H38       -14.8922   -3.4918   55.4275 H       1  ZINC000655982608    0.1200
     39 H39       -12.5321   -0.0011   53.1538 H       1  ZINC000655982608    0.1200
     40 H40       -12.3841    1.7294   51.4102 H       1  ZINC000655982608    0.1300
     41 H41       -13.4837    1.3856   49.2355 H       1  ZINC000655982608    0.1200
     42 H42       -14.7340   -0.6886   48.7978 H       1  ZINC000655982608    0.1300
     43 H43       -14.8815   -2.4286   50.5321 H       1  ZINC000655982608    0.1500
     44 H44       -12.2992   -2.1913   54.4185 H       1  ZINC000655982608    0.0900
     45 H45       -11.8462   -3.0964   52.9435 H       1  ZINC000655982608    0.1000
     46 H46        -8.5923   -3.3304   60.6271 H       1  ZINC000655982608    0.1000
     47 H47        -8.7359   -1.7821   59.7307 H       1  ZINC000655982608    0.0700
     48 H48        -8.6215   -2.2555   62.7300 H       1  ZINC000655982608    0.0900
     49 H49        -7.9908   -0.8709   61.7787 H       1  ZINC000655982608    0.0800
     50 H50        -9.6907    0.6874   63.5531 H       1  ZINC000655982608    0.1200
     51 H51       -11.9885    1.5763   63.5616 H       1  ZINC000655982608    0.1200
     52 H52       -13.7063    0.5547   62.1250 H       1  ZINC000655982608    0.1300
     53 H53       -13.1398   -1.3538   60.6870 H       1  ZINC000655982608    0.1200
@<TRIPOS>BOND
     1     1     2    1
     2     1    32    1
     3     1    33    1
     4     1    34    1
     5     2     3    1
     6     2     4    1
     7     2    23    1
     8     4     5    1
     9     4    35    1
    10     4    36    1
    11     5    22    1
    12     5     6    2
    13     6     7    1
    14     7     8    1
    15     7    21    2
    16     8     9    1
    17     8    20    1
    18     8    10    1
    19    10    11    1
    20    10    37    1
    21    10    38    1
    22    11    12    2
    23    11    13   am
    24    13    14    1
    25    13    20    1
    26    14    19   ar
    27    14    15   ar
    28    15    16   ar
    29    15    39    1
    30    16    17   ar
    31    16    40    1
    32    17    18   ar
    33    17    41    1
    34    18    19   ar
    35    18    42    1
    36    19    43    1
    37    20    44    1
    38    20    45    1
    39    21    22    1
    40    23    31    1
    41    23    24    1
    42    24    25    1
    43    24    46    1
    44    24    47    1
    45    25    26    1
    46    25    48    1
    47    25    49    1
    48    26    31   ar
    49    26    27   ar
    50    27    28   ar
    51    27    50    1
    52    28    29   ar
    53    28    51    1
    54    29    30   ar
    55    29    52    1
    56    30    31   ar
    57    30    53    1
@<TRIPOS>SUBSTRUCTURE
     1 ZINC000655982608        1 TEMP              0 ****  ****    0 ROOT


##########                                Name:    ZINC001011676549
##########                DOCK_Rotatable_Bonds:                   6
##########                         Heavy_Atoms:                  24
##########                    Molecular_Weight:             330.387
##########                DOCK_Rotatable_Bonds:                   6
##########                       Formal_Charge:        -1.49012e-07
##########                     HBond_Acceptors:                   7
##########                        HBond_Donors:                   1
##########                         Heavy_Atoms:                  24
##########                          Grid_Score:          -33.018131
##########                     Grid_vdw_energy:          -32.696938
##########                      Grid_es_energy:           -0.321194
##########           Internal_energy_repulsive:           12.077878

@<TRIPOS>MOLECULE
ZINC001011676549
 46 48 1 0 0
SMALL
USER_CHARGES


@<TRIPOS>ATOM
      1 C1        -14.2495   -3.8158   55.2100 C.3     1  ZINC001011676549   -0.1700
      2 C2        -12.7807   -4.0513   54.8518 C.3     1  ZINC001011676549    0.1300
      3 H3        -12.6257   -5.0988   54.5934 H       1  ZINC001011676549    0.0900
      4 C4        -12.3799   -3.1527   53.6630 C.3     1  ZINC001011676549    0.1400
      5 H5        -11.6721   -3.6665   53.0126 H       1  ZINC001011676549    0.1100
      6 N6        -13.5635   -2.7326   52.9086 N.am    1  ZINC001011676549   -0.7200
      7 C7        -13.4209   -2.1352   51.7089 C.2     1  ZINC001011676549    0.5200
      8 O8        -12.3127   -1.9440   51.2545 O.2     1  ZINC001011676549   -0.5300
      9 C9        -14.6384   -1.7048   50.9321 C.3     1  ZINC001011676549   -0.0900
     10 C10       -14.2088   -0.9227   49.7176 C.ar    1  ZINC001011676549   -0.1800
     11 C11       -13.8533    0.4128   49.8228 C.ar    1  ZINC001011676549    0.1600
     12 N12       -13.4812    1.0675   48.7346 N.ar    1  ZINC001011676549   -0.5200
     13 C13       -13.4467    0.4651   47.5630 C.ar    1  ZINC001011676549    0.3000
     14 N14       -13.7776   -0.8031   47.4250 N.ar    1  ZINC001011676549   -0.5200
     15 C15       -14.1542   -1.5230   48.4696 C.ar    1  ZINC001011676549    0.1600
     16 C16       -11.7068   -1.9387   54.3564 C.3     1  ZINC001011676549   -0.1400
     17 C17       -10.9977   -2.6186   55.5541 C.3     1  ZINC001011676549    0.1000
     18 N18       -11.9238   -3.6845   55.9887 N.am    1  ZINC001011676549   -0.6100
     19 C19       -11.9751   -4.2258   57.2220 C.2     1  ZINC001011676549    0.5800
     20 O20       -12.7819   -5.1018   57.4685 O.2     1  ZINC001011676549   -0.5300
     21 C21       -11.0551   -3.7571   58.2698 C.2     1  ZINC001011676549   -0.1400
     22 C22        -9.8824   -4.3505   58.4010 C.2     1  ZINC001011676549   -0.1500
     23 C23        -8.8831   -3.9451   59.4476 C.3     1  ZINC001011676549    0.0900
     24 O24        -9.2231   -2.6637   59.9807 O.3     1  ZINC001011676549   -0.3800
     25 C25       -10.5904   -2.5736   60.3989 C.3     1  ZINC001011676549    0.0600
     26 C26       -11.4795   -2.6145   59.1511 C.3     1  ZINC001011676549   -0.1100
     27 H27       -14.3947   -2.7695   55.4791 H       1  ZINC001011676549    0.0600
     28 H28       -14.8763   -4.0608   54.3526 H       1  ZINC001011676549    0.0700
     29 H29       -14.5238   -4.4494   56.0535 H       1  ZINC001011676549    0.0800
     30 H30       -14.4496   -2.8845   53.2725 H       1  ZINC001011676549    0.4100
     31 H31       -15.1987   -2.5853   50.6176 H       1  ZINC001011676549    0.1100
     32 H32       -15.2693   -1.0787   51.5629 H       1  ZINC001011676549    0.1100
     33 H33       -13.8798    0.9125   50.7800 H       1  ZINC001011676549    0.1700
     34 H34       -13.1391    1.0258   46.6926 H       1  ZINC001011676549    0.2000
     35 H35       -14.4238   -2.5620   48.3498 H       1  ZINC001011676549    0.1700
     36 H36       -10.9844   -1.4617   53.6941 H       1  ZINC001011676549    0.0900
     37 H37       -12.4527   -1.2219   54.6996 H       1  ZINC001011676549    0.0800
     38 H38       -10.0476   -3.0493   55.2378 H       1  ZINC001011676549    0.0800
     39 H39       -10.8404   -1.9007   56.3591 H       1  ZINC001011676549    0.0800
     40 H40        -9.6319   -5.1588   57.7300 H       1  ZINC001011676549    0.1200
     41 H41        -8.8819   -4.6820   60.2508 H       1  ZINC001011676549    0.0700
     42 H42        -7.8901   -3.8988   59.0006 H       1  ZINC001011676549    0.1100
     43 H43       -10.8299   -3.4131   61.0516 H       1  ZINC001011676549    0.0600
     44 H44       -10.7498   -1.6354   60.9304 H       1  ZINC001011676549    0.1000
     45 H45       -11.3858   -1.6745   58.6076 H       1  ZINC001011676549    0.0900
     46 H46       -12.5179   -2.7587   59.4499 H       1  ZINC001011676549    0.0900
@<TRIPOS>BOND
     1     1     2    1
     2     1    27    1
     3     1    28    1
     4     1    29    1
     5     2     3    1
     6     2    18    1
     7     2     4    1
     8     4     5    1
     9     4     6    1
    10     4    16    1
    11     6     7   am
    12     6    30    1
    13     7     8    2
    14     7     9    1
    15     9    10    1
    16     9    31    1
    17     9    32    1
    18    10    15   ar
    19    10    11   ar
    20    11    12   ar
    21    11    33    1
    22    12    13   ar
    23    13    14   ar
    24    13    34    1
    25    14    15   ar
    26    15    35    1
    27    16    17    1
    28    16    36    1
    29    16    37    1
    30    17    18    1
    31    17    38    1
    32    17    39    1
    33    18    19   am
    34    19    20    2
    35    19    21    1
    36    21    26    1
    37    21    22    2
    38    22    23    1
    39    22    40    1
    40    23    24    1
    41    23    41    1
    42    23    42    1
    43    24    25    1
    44    25    26    1
    45    25    43    1
    46    25    44    1
    47    26    45    1
    48    26    46    1
@<TRIPOS>SUBSTRUCTURE
     1 ZINC001011676549        1 TEMP              0 ****  ****    0 ROOT


##########                                Name:    ZINC000057429281
##########                DOCK_Rotatable_Bonds:                  10
##########                         Heavy_Atoms:                  23
##########                    Molecular_Weight:             331.295
##########                DOCK_Rotatable_Bonds:                  10
##########                       Formal_Charge:          -0.0100002
##########                     HBond_Acceptors:                   9
##########                        HBond_Donors:                   5
##########                         Heavy_Atoms:                  23
##########                          Grid_Score:          -33.010643
##########                     Grid_vdw_energy:          -30.077379
##########                      Grid_es_energy:           -2.933263
##########           Internal_energy_repulsive:           10.787718

@<TRIPOS>MOLECULE
ZINC000057429281
 39 39 1 0 0
SMALL
USER_CHARGES


@<TRIPOS>ATOM
      1 C1        -11.9727   -3.9811   54.0452 C.3     1  ZINC000057429281   -0.1500
      2 C2        -12.6094   -4.2459   55.4109 C.3     1  ZINC000057429281   -0.0400
      3 H3        -12.8415   -5.3068   55.5040 H       1  ZINC000057429281    0.0900
      4 C4        -13.8965   -3.4290   55.5406 C.3     1  ZINC000057429281   -0.1300
      5 C5        -14.5206   -3.6855   56.8882 C.2     1  ZINC000057429281    0.5200
      6 O6        -14.4559   -4.7894   57.3861 O.2     1  ZINC000057429281   -0.5300
      7 N7        -15.1507   -2.6881   57.5399 N.am    1  ZINC000057429281   -0.7000
      8 C8        -15.7589   -2.9379   58.8490 C.3     1  ZINC000057429281    0.1100
      9 C9        -14.7466   -2.6694   59.9327 C.2     1  ZINC000057429281    0.5200
     10 N10       -13.7923   -1.7361   59.7470 N.am    1  ZINC000057429281   -0.8500
     11 O11       -14.7907   -3.2933   60.9717 O.2     1  ZINC000057429281   -0.5100
     12 C12       -16.9457   -2.0276   59.0335 C.2     1  ZINC000057429281    0.5300
     13 N13       -18.1909   -2.4886   58.8024 N.am    1  ZINC000057429281   -0.8400
     14 O14       -16.7802   -0.8802   59.3899 O.2     1  ZINC000057429281   -0.5100
     15 C15       -11.6479   -3.8447   56.4997 C.ar    1  ZINC000057429281   -0.0500
     16 C16       -11.1056   -4.8062   57.3317 C.ar    1  ZINC000057429281   -0.1200
     17 C17       -10.2235   -4.4382   58.3304 C.ar    1  ZINC000057429281   -0.0700
     18 C18        -9.8834   -3.1087   58.4968 C.ar    1  ZINC000057429281   -0.1900
     19 C19        -8.9221   -2.7074   59.5859 C.3     1  ZINC000057429281    0.5100
     20 F20        -9.5932   -2.6782   60.8130 F       1  ZINC000057429281   -0.1800
     21 F21        -7.8755   -3.6336   59.6486 F       1  ZINC000057429281   -0.1800
     22 F22        -8.4050   -1.4377   59.3067 F       1  ZINC000057429281   -0.1800
     23 C23       -10.4246   -2.1474   57.6640 C.ar    1  ZINC000057429281   -0.0700
     24 C24       -11.3037   -2.5158   56.6628 C.ar    1  ZINC000057429281   -0.1100
     25 H25       -11.0557   -4.5630   53.9527 H       1  ZINC000057429281    0.0600
     26 H26       -12.6681   -4.2713   53.2576 H       1  ZINC000057429281    0.0800
     27 H27       -11.7405   -2.9201   53.9520 H       1  ZINC000057429281    0.0500
     28 H28       -13.6650   -2.3683   55.4434 H       1  ZINC000057429281    0.1000
     29 H29       -14.5936   -3.7222   54.7557 H       1  ZINC000057429281    0.1000
     30 H30       -15.2014   -1.8048   57.1421 H       1  ZINC000057429281    0.4200
     31 H31       -16.0852   -3.9763   58.9058 H       1  ZINC000057429281    0.1300
     32 H32       -13.1407   -1.5631   60.4445 H       1  ZINC000057429281    0.4000
     33 H33       -13.7570   -1.2372   58.9159 H       1  ZINC000057429281    0.4100
     34 H34       -18.9548   -1.9027   58.9211 H       1  ZINC000057429281    0.4000
     35 H35       -18.3231   -3.4063   58.5173 H       1  ZINC000057429281    0.4100
     36 H36       -11.3712   -5.8449   57.2017 H       1  ZINC000057429281    0.1400
     37 H37        -9.8003   -5.1893   58.9809 H       1  ZINC000057429281    0.1400
     38 H38       -10.1586   -1.1087   57.7937 H       1  ZINC000057429281    0.1400
     39 H39       -11.7265   -1.7647   56.0121 H       1  ZINC000057429281    0.1400
@<TRIPOS>BOND
     1     1     2    1
     2     1    25    1
     3     1    26    1
     4     1    27    1
     5     2     3    1
     6     2     4    1
     7     2    15    1
     8     4     5    1
     9     4    28    1
    10     4    29    1
    11     5     6    2
    12     5     7   am
    13     7     8    1
    14     7    30    1
    15     8     9    1
    16     8    12    1
    17     8    31    1
    18     9    10   am
    19     9    11    2
    20    10    32    1
    21    10    33    1
    22    12    13   am
    23    12    14    2
    24    13    34    1
    25    13    35    1
    26    15    24   ar
    27    15    16   ar
    28    16    17   ar
    29    16    36    1
    30    17    18   ar
    31    17    37    1
    32    18    19    1
    33    18    23   ar
    34    19    20    1
    35    19    21    1
    36    19    22    1
    37    23    24   ar
    38    23    38    1
    39    24    39    1
@<TRIPOS>SUBSTRUCTURE
     1 ZINC000057429281        1 TEMP              0 ****  ****    0 ROOT


##########                                Name:    ZINC001289445798
##########                DOCK_Rotatable_Bonds:                  10
##########                         Heavy_Atoms:                  25
##########                    Molecular_Weight:             352.434
##########                DOCK_Rotatable_Bonds:                  10
##########                       Formal_Charge:          0.00999932
##########                     HBond_Acceptors:                   8
##########                        HBond_Donors:                   2
##########                         Heavy_Atoms:                  25
##########                          Grid_Score:          -32.991257
##########                     Grid_vdw_energy:          -31.455633
##########                      Grid_es_energy:           -1.535623
##########           Internal_energy_repulsive:           21.327808

@<TRIPOS>MOLECULE
ZINC001289445798
 53 54 1 0 0
SMALL
USER_CHARGES


@<TRIPOS>ATOM
      1 C1        -14.0849   -5.1064   57.1470 C.3     1  ZINC001289445798   -0.1500
      2 C2        -13.3116   -4.0077   56.4152 C.3     1  ZINC001289445798    0.0600
      3 O3        -11.9747   -4.4488   56.1696 O.3     1  ZINC001289445798   -0.3700
      4 C4        -11.1711   -3.5025   55.4623 C.3     1  ZINC001289445798    0.1100
      5 H5        -10.1877   -3.9319   55.2710 H       1  ZINC001289445798    0.0700
      6 C6        -11.0184   -2.2335   56.3035 C.3     1  ZINC001289445798   -0.1400
      7 C7        -10.5296   -2.5998   57.6811 C.2     1  ZINC001289445798    0.5400
      8 O8         -9.8332   -3.5805   57.8366 O.2     1  ZINC001289445798   -0.5200
      9 N9        -10.8663   -1.8376   58.7404 N.am    1  ZINC001289445798   -0.6200
     10 C10       -10.4544   -2.0741   60.1318 C.3     1  ZINC001289445798    0.1000
     11 C11       -11.0521   -0.9367   60.9863 C.3     1  ZINC001289445798    0.1400
     12 H12       -11.9912   -1.2497   61.4426 H       1  ZINC001289445798    0.1200
     13 N13       -10.0994   -0.5026   62.0110 N.am    1  ZINC001289445798   -0.7200
     14 C14       -10.5477    0.0148   63.1720 C.2     1  ZINC001289445798    0.6000
     15 O15       -11.7431    0.1226   63.3684 O.2     1  ZINC001289445798   -0.5100
     16 C16        -9.5907    0.4492   64.2022 C.2     1  ZINC001289445798   -0.0500
     17 C17        -9.8899    1.0351   65.4199 C.2     1  ZINC001289445798   -0.1400
     18 C18        -8.6564    1.2609   66.0349 C.2     1  ZINC001289445798    0.0000
     19 N19        -7.7205    0.8343   65.2259 N.2     1  ZINC001289445798   -0.2700
     20 N20        -8.2293    0.3495   64.1508 N.pl3   1  ZINC001289445798   -0.3800
     21 C21       -11.2956    0.1884   59.9459 C.3     1  ZINC001289445798    0.0700
     22 H22       -10.3820    0.7530   59.7600 H       1  ZINC001289445798    0.0900
     23 O23       -12.3527    1.0537   60.3652 O.3     1  ZINC001289445798   -0.3700
     24 C24       -12.4352    2.2722   59.6233 C.3     1  ZINC001289445798    0.0300
     25 C25       -11.7034   -0.6250   58.6949 C.3     1  ZINC001289445798    0.0800
     26 C26       -11.8434   -3.1550   54.1327 C.3     1  ZINC001289445798   -0.1100
     27 C27       -10.9048   -2.2795   53.2999 C.3     1  ZINC001289445798   -0.1500
     28 C28       -12.1537   -4.4425   53.3663 C.3     1  ZINC001289445798   -0.1500
     29 H29       -13.5947   -5.3256   58.0955 H       1  ZINC001289445798    0.0600
     30 H30       -15.1046   -4.7699   57.3342 H       1  ZINC001289445798    0.0700
     31 H31       -14.1064   -6.0064   56.5327 H       1  ZINC001289445798    0.0600
     32 H32       -13.8018   -3.7885   55.4666 H       1  ZINC001289445798    0.0500
     33 H33       -13.2902   -3.1076   57.0296 H       1  ZINC001289445798    0.0500
     34 H34       -10.2989   -1.5668   55.8280 H       1  ZINC001289445798    0.1100
     35 H35       -11.9826   -1.7312   56.3817 H       1  ZINC001289445798    0.1000
     36 H36       -10.8380   -3.0355   60.4736 H       1  ZINC001289445798    0.0800
     37 H37        -9.3668   -2.0599   60.2039 H       1  ZINC001289445798    0.0800
     38 H38        -9.1459   -0.5874   61.8540 H       1  ZINC001289445798    0.4000
     39 H39       -10.8693    1.2682   65.8113 H       1  ZINC001289445798    0.1700
     40 H40        -8.5025    1.7087   67.0055 H       1  ZINC001289445798    0.1900
     41 H41        -7.7237   -0.0241   63.4121 H       1  ZINC001289445798    0.4400
     42 H42       -13.2620    2.8731   60.0023 H       1  ZINC001289445798    0.0900
     43 H43       -11.5034    2.8273   59.7315 H       1  ZINC001289445798    0.0400
     44 H44       -12.6034    2.0459   58.5704 H       1  ZINC001289445798    0.0500
     45 H45       -11.5012   -0.0540   57.7887 H       1  ZINC001289445798    0.0900
     46 H46       -12.7579   -0.8962   58.7460 H       1  ZINC001289445798    0.0900
     47 H47       -12.7701   -2.6141   54.3244 H       1  ZINC001289445798    0.0800
     48 H48        -9.9781   -2.8205   53.1080 H       1  ZINC001289445798    0.0600
     49 H49       -11.3838   -2.0321   52.3525 H       1  ZINC001289445798    0.0600
     50 H50       -10.6838   -1.3623   53.8458 H       1  ZINC001289445798    0.0600
     51 H51       -12.8976   -5.0210   53.9141 H       1  ZINC001289445798    0.0600
     52 H52       -12.5423   -4.1930   52.3791 H       1  ZINC001289445798    0.0600
     53 H53       -11.2422   -5.0307   53.2600 H       1  ZINC001289445798    0.0500
@<TRIPOS>BOND
     1     1     2    1
     2     1    29    1
     3     1    30    1
     4     1    31    1
     5     2     3    1
     6     2    32    1
     7     2    33    1
     8     3     4    1
     9     4     5    1
    10     4     6    1
    11     4    26    1
    12     6     7    1
    13     6    34    1
    14     6    35    1
    15     7     8    2
    16     7     9   am
    17     9    25    1
    18     9    10    1
    19    10    11    1
    20    10    36    1
    21    10    37    1
    22    11    12    1
    23    11    13    1
    24    11    21    1
    25    13    14   am
    26    13    38    1
    27    14    15    2
    28    14    16    1
    29    16    20    1
    30    16    17    2
    31    17    18    1
    32    17    39    1
    33    18    19    2
    34    18    40    1
    35    19    20    1
    36    20    41    1
    37    21    22    1
    38    21    23    1
    39    21    25    1
    40    23    24    1
    41    24    42    1
    42    24    43    1
    43    24    44    1
    44    25    45    1
    45    25    46    1
    46    26    27    1
    47    26    28    1
    48    26    47    1
    49    27    48    1
    50    27    49    1
    51    27    50    1
    52    28    51    1
    53    28    52    1
    54    28    53    1
@<TRIPOS>SUBSTRUCTURE
     1 ZINC001289445798        1 TEMP              0 ****  ****    0 ROOT


##########                                Name:    ZINC000022858610
##########                DOCK_Rotatable_Bonds:                   9
##########                         Heavy_Atoms:                  26
##########                    Molecular_Weight:             369.343
##########                DOCK_Rotatable_Bonds:                   9
##########                       Formal_Charge:          0.00999956
##########                     HBond_Acceptors:                   9
##########                        HBond_Donors:                   2
##########                         Heavy_Atoms:                  26
##########                          Grid_Score:          -32.988773
##########                     Grid_vdw_energy:          -31.807367
##########                      Grid_es_energy:           -1.181406
##########           Internal_energy_repulsive:           17.620474

@<TRIPOS>MOLECULE
ZINC000022858610
 44 45 1 0 0
SMALL
USER_CHARGES


@<TRIPOS>ATOM
      1 C1        -12.3056   -4.4215   53.6084 C.3     1  <0>         0.0100
      2 N2        -11.1067   -3.6377   53.9343 N.3     1  <0>        -0.5300
      3 C3        -10.8184   -2.6543   52.8817 C.3     1  <0>         0.0200
      4 C4        -11.2449   -2.9835   55.2422 C.3     1  <0>         0.1500
      5 H5        -10.5973   -2.1076   55.2806 H       1  <0>         0.1200
      6 C6        -10.8440   -3.9629   56.3472 C.3     1  <0>         0.1300
      7 N7        -10.8456   -3.2702   57.6380 N.am    1  <0>        -0.6800
      8 C8        -10.0566   -3.7084   58.6390 C.2     1  <0>         0.5100
      9 O9         -9.3438   -4.6760   58.4706 O.2     1  <0>        -0.5100
     10 C10       -10.0596   -3.0032   59.9555 C.2     1  <0>         0.5200
     11 O11        -9.8655   -3.6269   60.9785 O.2     1  <0>        -0.4900
     12 N12       -10.2776   -1.6742   60.0076 N.am    1  <0>        -0.6500
     13 C13       -10.2804   -1.0144   61.2394 C.ar    1  <0>         0.1900
     14 C14        -9.0949   -0.8528   61.9452 C.ar    1  <0>        -0.1200
     15 C15        -9.1013   -0.2003   63.1624 C.ar    1  <0>        -0.0700
     16 C16       -10.2859    0.2919   63.6786 C.ar    1  <0>        -0.1300
     17 C17       -11.4682    0.1323   62.9788 C.ar    1  <0>        -0.0500
     18 C18       -11.4681   -0.5136   61.7583 C.ar    1  <0>        -0.2100
     19 C19       -12.7566   -0.6870   60.9965 C.3     1  <0>         0.5100
     20 F20       -13.0820   -2.0462   60.9339 F       1  <0>        -0.1700
     21 F21       -13.7809    0.0081   61.6482 F       1  <0>        -0.1800
     22 F22       -12.6033   -0.1841   59.7000 F       1  <0>        -0.1700
     23 C23       -12.6768   -2.5588   55.4427 C.2     1  <0>        -0.0500
     24 C24       -13.6455   -3.3005   56.0092 C.2     1  <0>        -0.1900
     25 C25       -14.8230   -2.5182   55.9927 C.2     1  <0>        -0.2100
     26 C26       -14.5036   -1.3452   55.4170 C.2     1  <0>        -0.0400
     27 O27       -13.2009   -1.3731   55.0912 O.3     1  <0>        -0.1700
     28 H28       -12.1078   -5.0416   52.7340 H       1  <0>         0.0700
     29 H29       -12.5644   -5.0584   54.4543 H       1  <0>         0.0700
     30 H30       -13.1342   -3.7463   53.3950 H       1  <0>         0.0500
     31 H31       -11.6636   -1.9738   52.7788 H       1  <0>         0.0300
     32 H32        -9.9261   -2.0879   53.1482 H       1  <0>         0.0700
     33 H33       -10.6516   -3.1718   51.9369 H       1  <0>         0.0800
     34 H34       -11.5555   -4.7882   56.3770 H       1  <0>         0.0900
     35 H35        -9.8459   -4.3509   56.1443 H       1  <0>         0.0800
     36 H36       -11.4144   -2.4960   57.7723 H       1  <0>         0.4200
     37 H37       -10.4327   -1.1757   59.1901 H       1  <0>         0.4300
     38 H38        -8.1694   -1.2372   61.5427 H       1  <0>         0.1500
     39 H39        -8.1800   -0.0745   63.7119 H       1  <0>         0.1400
     40 H40       -10.2880    0.8018   64.6307 H       1  <0>         0.1400
     41 H41       -12.3917    0.5172   63.3852 H       1  <0>         0.1500
     42 H42       -13.5434   -4.3018   56.4009 H       1  <0>         0.1500
     43 H43       -15.7930   -2.8072   56.3696 H       1  <0>         0.1500
     44 H44       -15.1791   -0.5194   55.2491 H       1  <0>         0.2000
@<TRIPOS>BOND
     1     1     2    1
     2     1    28    1
     3     1    29    1
     4     1    30    1
     5     2     3    1
     6     2     4    1
     7     3    31    1
     8     3    32    1
     9     3    33    1
    10     4     5    1
    11     4     6    1
    12     4    23    1
    13     6     7    1
    14     6    34    1
    15     6    35    1
    16     7     8   am
    17     7    36    1
    18     8     9    2
    19     8    10    1
    20    10    11    2
    21    10    12   am
    22    12    13    1
    23    12    37    1
    24    13    18   ar
    25    13    14   ar
    26    14    15   ar
    27    14    38    1
    28    15    16   ar
    29    15    39    1
    30    16    17   ar
    31    16    40    1
    32    17    18   ar
    33    17    41    1
    34    18    19    1
    35    19    20    1
    36    19    21    1
    37    19    22    1
    38    23    27    1
    39    23    24    2
    40    24    25    1
    41    24    42    1
    42    25    26    2
    43    25    43    1
    44    26    27    1
    45    26    44    1
@<TRIPOS>SUBSTRUCTURE
     1 <0>         1 TEMP              0 ****  ****    0 ROOT


##########                                Name:    ZINC000350493047
##########                DOCK_Rotatable_Bonds:                   7
##########                         Heavy_Atoms:                  24
##########                    Molecular_Weight:             330.387
##########                DOCK_Rotatable_Bonds:                   7
##########                       Formal_Charge:          -0.0300002
##########                     HBond_Acceptors:                   7
##########                        HBond_Donors:                   3
##########                         Heavy_Atoms:                  24
##########                          Grid_Score:          -32.984833
##########                     Grid_vdw_energy:          -32.619068
##########                      Grid_es_energy:           -0.365763
##########           Internal_energy_repulsive:           14.211475

@<TRIPOS>MOLECULE
ZINC000350493047
 46 48 1 0 0
SMALL
USER_CHARGES


@<TRIPOS>ATOM
      1 C1         -8.2938    0.7811   64.5968 C.3     1  <0>        -0.1600
      2 C2         -9.4371    0.7842   63.5801 C.3     1  <0>         0.2600
      3 H3         -9.4228    1.7193   63.0202 H       1  <0>         0.1200
      4 N4        -10.7160    0.6554   64.2830 N.am    1  <0>        -0.7400
      5 C5        -11.8257    1.2255   63.7732 C.2     1  <0>         0.7100
      6 N6        -13.0026    1.1057   64.4190 N.am    1  <0>        -0.8600
      7 O7        -11.7652    1.8480   62.7305 O.2     1  <0>        -0.5900
      8 C8         -9.2675   -0.3730   62.6297 C.2     1  <0>         0.1700
      9 N9         -8.4935   -1.4031   62.8049 N.2     1  <0>        -0.3800
     10 O10        -8.5774   -2.1625   61.8629 O.3     1  <0>         0.0900
     11 C11        -9.4444   -1.6727   60.9629 C.2     1  <0>         0.2400
     12 C12        -9.8275   -2.2929   59.6788 C.ar    1  <0>        -0.0800
     13 C13        -9.3665   -3.5707   59.3533 C.ar    1  <0>        -0.0200
     14 C14        -9.7261   -4.1460   58.1543 C.ar    1  <0>        -0.2200
     15 C15       -10.5458   -3.4567   57.2690 C.ar    1  <0>         0.1700
     16 O16       -10.8976   -4.0270   56.0882 O.3     1  <0>        -0.3000
     17 C17       -11.3934   -3.1562   55.0694 C.3     1  <0>         0.0800
     18 C18       -10.9691   -3.6832   53.6972 C.3     1  <0>        -0.1500
     19 C19       -11.5000   -2.7510   52.6063 C.3     1  <0>        -0.1200
     20 C20       -13.0271   -2.6957   52.6814 C.3     1  <0>        -0.1300
     21 C21       -13.4515   -2.1687   54.0537 C.3     1  <0>        -0.1200
     22 C22       -12.9206   -3.1010   55.1446 C.3     1  <0>        -0.1200
     23 C23       -11.0067   -2.1857   57.5893 C.ar    1  <0>        -0.1600
     24 C24       -10.6565   -1.6059   58.7889 C.ar    1  <0>        -0.0300
     25 N25        -9.8924   -0.5293   61.4524 N.2     1  <0>        -0.4700
     26 H26        -8.3081   -0.1541   65.1566 H       1  <0>         0.0600
     27 H27        -7.3423    0.8768   64.0738 H       1  <0>         0.0700
     28 H28        -8.4165    1.6180   65.2842 H       1  <0>         0.0800
     29 H29       -10.7641    0.1598   65.1155 H       1  <0>         0.4000
     30 H30       -13.8014    1.5150   64.0513 H       1  <0>         0.4000
     31 H31       -13.0508    0.6101   65.2515 H       1  <0>         0.4200
     32 H32        -8.7287   -4.1068   60.0405 H       1  <0>         0.1400
     33 H33        -9.3701   -5.1339   57.9018 H       1  <0>         0.1400
     34 H34       -10.9860   -2.1560   55.2164 H       1  <0>         0.0800
     35 H35        -9.8811   -3.7226   53.6436 H       1  <0>         0.0700
     36 H36       -11.3765   -4.6835   53.5502 H       1  <0>         0.0800
     37 H37       -11.0926   -1.7507   52.7534 H       1  <0>         0.0600
     38 H38       -11.1977   -3.1264   51.6287 H       1  <0>         0.0700
     39 H39       -13.4054   -2.0315   51.9043 H       1  <0>         0.0700
     40 H40       -13.4346   -3.6959   52.5345 H       1  <0>         0.0700
     41 H41       -13.0440   -1.1685   54.2007 H       1  <0>         0.0700
     42 H42       -14.5395   -2.1294   54.1073 H       1  <0>         0.0700
     43 H43       -13.3281   -4.1013   54.9976 H       1  <0>         0.0800
     44 H44       -13.2230   -2.7255   56.1222 H       1  <0>         0.0700
     45 H45       -11.6440   -1.6533   56.8987 H       1  <0>         0.1400
     46 H46       -11.0155   -0.6180   59.0372 H       1  <0>         0.1400
@<TRIPOS>BOND
     1     1     2    1
     2     1    26    1
     3     1    27    1
     4     1    28    1
     5     2     3    1
     6     2     4    1
     7     2     8    1
     8     4     5   am
     9     4    29    1
    10     5     6   am
    11     5     7    2
    12     6    30    1
    13     6    31    1
    14     8    25    1
    15     8     9    2
    16     9    10    1
    17    10    11    1
    18    11    12    1
    19    11    25    2
    20    12    24   ar
    21    12    13   ar
    22    13    14   ar
    23    13    32    1
    24    14    15   ar
    25    14    33    1
    26    15    16    1
    27    15    23   ar
    28    16    17    1
    29    17    22    1
    30    17    18    1
    31    17    34    1
    32    18    19    1
    33    18    35    1
    34    18    36    1
    35    19    20    1
    36    19    37    1
    37    19    38    1
    38    20    21    1
    39    20    39    1
    40    20    40    1
    41    21    22    1
    42    21    41    1
    43    21    42    1
    44    22    43    1
    45    22    44    1
    46    23    24   ar
    47    23    45    1
    48    24    46    1
@<TRIPOS>SUBSTRUCTURE
     1 <0>         1 TEMP              0 ****  ****    0 ROOT


##########                                Name:    ZINC000854704989
##########                DOCK_Rotatable_Bonds:                   5
##########                         Heavy_Atoms:                  22
##########                    Molecular_Weight:             365.227
##########                DOCK_Rotatable_Bonds:                   5
##########                       Formal_Charge:        -1.78814e-07
##########                     HBond_Acceptors:                   5
##########                        HBond_Donors:                   1
##########                         Heavy_Atoms:                  22
##########                          Grid_Score:          -32.982132
##########                     Grid_vdw_energy:          -31.407902
##########                      Grid_es_energy:           -1.574230
##########           Internal_energy_repulsive:            5.368293

@<TRIPOS>MOLECULE
ZINC000854704989
 39 41 1 0 0
SMALL
USER_CHARGES


@<TRIPOS>ATOM
      1 O1        -11.7077   -0.7888   61.7716 O.2     1  ZINC000854704989   -0.5300
      2 C2        -10.6889   -0.8705   61.1137 C.2     1  ZINC000854704989    0.5700
      3 N3         -9.6936    0.0191   61.2997 N.am    1  ZINC000854704989   -0.7300
      4 C4         -9.8421    1.0880   62.2905 C.3     1  ZINC000854704989    0.2000
      5 C5         -9.1890    0.6696   63.5826 C.2     1  ZINC000854704989   -0.0500
      6 C6         -8.9306    1.4584   64.6525 C.2     1  ZINC000854704989   -0.1700
      7 C7         -8.3184    0.5844   65.5815 C.2     1  ZINC000854704989    0.0000
      8 Br8        -7.6939    1.0257   67.3110 Br      1  ZINC000854704989    0.0600
      9 N9         -8.2707   -0.5848   65.0092 N.2     1  ZINC000854704989   -0.3200
     10 O10        -8.7547   -0.5578   63.9014 O.3     1  ZINC000854704989    0.1300
     11 C11       -10.5389   -1.9492   60.1138 C.ar    1  ZINC000854704989   -0.1300
     12 C12        -9.4890   -2.8625   60.2202 C.ar    1  ZINC000854704989   -0.0900
     13 C13        -9.3550   -3.8670   59.2840 C.ar    1  ZINC000854704989   -0.1200
     14 C14       -10.2582   -3.9699   58.2413 C.ar    1  ZINC000854704989   -0.0900
     15 C15       -11.3015   -3.0675   58.1299 C.ar    1  ZINC000854704989   -0.0800
     16 C16       -12.2808   -3.1873   56.9907 C.3     1  ZINC000854704989   -0.0800
     17 H17       -13.0129   -2.3823   57.0537 H       1  ZINC000854704989    0.0900
     18 C18       -12.9974   -4.5386   57.0715 C.3     1  ZINC000854704989   -0.1100
     19 C19       -13.9321   -4.6813   55.8664 C.3     1  ZINC000854704989   -0.1600
     20 C20       -13.1180   -4.5315   54.5785 C.3     1  ZINC000854704989    0.0600
     21 O21       -12.4529   -3.2667   54.5814 O.3     1  ZINC000854704989   -0.3800
     22 C22       -11.5307   -3.0935   55.6594 C.3     1  ZINC000854704989    0.0700
     23 C23       -11.4501   -2.0621   59.0624 C.ar    1  ZINC000854704989   -0.0500
     24 H24        -8.8789   -0.0484   60.7775 H       1  ZINC000854704989    0.4000
     25 H25        -9.3658    1.9956   61.9198 H       1  ZINC000854704989    0.1100
     26 H26       -10.9013    1.2781   62.4637 H       1  ZINC000854704989    0.1000
     27 H27        -9.1424    2.5109   64.7696 H       1  ZINC000854704989    0.1900
     28 H28        -8.7828   -2.7828   61.0335 H       1  ZINC000854704989    0.1200
     29 H29        -8.5431   -4.5745   59.3653 H       1  ZINC000854704989    0.1300
     30 H30       -10.1486   -4.7577   57.5106 H       1  ZINC000854704989    0.1300
     31 H31       -12.2616   -5.3428   57.0596 H       1  ZINC000854704989    0.0700
     32 H32       -13.5790   -4.5885   57.9920 H       1  ZINC000854704989    0.0700
     33 H33       -14.4048   -5.6633   55.8863 H       1  ZINC000854704989    0.0800
     34 H34       -14.6977   -3.9066   55.9056 H       1  ZINC000854704989    0.0700
     35 H35       -12.3791   -5.3307   54.5205 H       1  ZINC000854704989    0.0500
     36 H36       -13.7848   -4.5895   53.7182 H       1  ZINC000854704989    0.1000
     37 H37       -11.0544   -2.1166   55.5768 H       1  ZINC000854704989    0.1000
     38 H38       -10.7705   -3.8735   55.6164 H       1  ZINC000854704989    0.0500
     39 H39       -12.2650   -1.3587   58.9746 H       1  ZINC000854704989    0.1400
@<TRIPOS>BOND
     1     1     2    2
     2     2     3   am
     3     2    11    1
     4     3     4    1
     5     3    24    1
     6     4     5    1
     7     4    25    1
     8     4    26    1
     9     5    10    1
    10     5     6    2
    11     6     7    1
    12     6    27    1
    13     7     8    1
    14     7     9    2
    15     9    10    1
    16    11    23   ar
    17    11    12   ar
    18    12    13   ar
    19    12    28    1
    20    13    14   ar
    21    13    29    1
    22    14    15   ar
    23    14    30    1
    24    15    16    1
    25    15    23   ar
    26    16    17    1
    27    16    22    1
    28    16    18    1
    29    18    19    1
    30    18    31    1
    31    18    32    1
    32    19    20    1
    33    19    33    1
    34    19    34    1
    35    20    21    1
    36    20    35    1
    37    20    36    1
    38    21    22    1
    39    22    37    1
    40    22    38    1
    41    23    39    1
@<TRIPOS>SUBSTRUCTURE
     1 ZINC000854704989        1 TEMP              0 ****  ****    0 ROOT


##########                                Name:    ZINC000863246516
##########                DOCK_Rotatable_Bonds:                   5
##########                         Heavy_Atoms:                  25
##########                    Molecular_Weight:             356.489
##########                DOCK_Rotatable_Bonds:                   5
##########                       Formal_Charge:         -0.00999938
##########                     HBond_Acceptors:                   5
##########                        HBond_Donors:                   0
##########                         Heavy_Atoms:                  25
##########                          Grid_Score:          -32.976223
##########                     Grid_vdw_energy:          -32.782070
##########                      Grid_es_energy:           -0.194152
##########           Internal_energy_repulsive:            9.956697

@<TRIPOS>MOLECULE
ZINC000863246516
 49 52 1 0 0
SMALL
USER_CHARGES


@<TRIPOS>ATOM
      1 C1        -15.4694   -2.1307   51.6748 C.3     1  ZINC000863246516   -0.0600
      2 C2        -14.0503   -2.3336   52.1400 C.2     1  ZINC000863246516   -0.2000
      3 C3        -13.6428   -3.0006   53.2107 C.2     1  ZINC000863246516    0.0900
      4 C4        -14.6182   -3.6736   54.1416 C.3     1  ZINC000863246516   -0.1000
      5 N5        -12.2980   -3.0480   53.4278 N.am    1  ZINC000863246516   -0.5300
      6 C6        -11.7357   -3.7576   54.5796 C.3     1  ZINC000863246516    0.1200
      7 C7        -11.6069   -2.7925   55.7599 C.3     1  ZINC000863246516   -0.1500
      8 C8        -11.1400   -3.5478   56.9776 C.2     1  ZINC000863246516    0.5400
      9 O9        -11.3733   -4.7334   57.0822 O.2     1  ZINC000863246516   -0.5300
     10 N10       -10.4634   -2.9057   57.9504 N.am    1  ZINC000863246516   -0.6100
     11 C11        -9.9562   -3.5235   59.1809 C.3     1  ZINC000863246516    0.1100
     12 C12        -8.8871   -2.5699   59.7474 C.3     1  ZINC000863246516   -0.1300
     13 H13        -7.8539   -2.8659   59.5662 H       1  ZINC000863246516    0.1000
     14 C14        -9.2163   -2.0675   61.1630 C.3     1  ZINC000863246516   -0.1200
     15 C15       -10.1994   -1.0840   60.5079 C.3     1  ZINC000863246516   -0.0600
     16 H16       -11.2032   -1.4899   60.3820 H       1  ZINC000863246516    0.1000
     17 C17       -10.1970    0.2830   61.1424 C.ar    1  ZINC000863246516   -0.0700
     18 C18       -10.3086    1.4118   60.3524 C.ar    1  ZINC000863246516   -0.1200
     19 C19       -10.3063    2.6657   60.9344 C.ar    1  ZINC000863246516   -0.1200
     20 C20       -10.1929    2.7907   62.3064 C.ar    1  ZINC000863246516   -0.1200
     21 C21       -10.0823    1.6618   63.0965 C.ar    1  ZINC000863246516   -0.1200
     22 C22       -10.0888    0.4077   62.5149 C.ar    1  ZINC000863246516   -0.1200
     23 C23        -9.3252   -1.1790   59.2249 C.3     1  ZINC000863246516   -0.1100
     24 H24        -8.5445   -0.4249   59.1251 H       1  ZINC000863246516    0.1200
     25 C25       -10.1133   -1.4816   57.9419 C.3     1  ZINC000863246516    0.1200
     26 C26       -11.5100   -2.4181   52.5421 C.2     1  ZINC000863246516    0.4800
     27 O27       -10.2940   -2.3464   52.5622 O.2     1  ZINC000863246516   -0.4700
     28 S28       -12.5705   -1.7378   51.3681 S.3     1  ZINC000863246516    0.0100
     29 H29       -15.4704   -1.5413   50.7579 H       1  ZINC000863246516    0.0700
     30 H30       -15.9314   -3.0994   51.4845 H       1  ZINC000863246516    0.0800
     31 H31       -16.0327   -1.6045   52.4455 H       1  ZINC000863246516    0.0800
     32 H32       -15.6345   -3.5110   53.7825 H       1  ZINC000863246516    0.0900
     33 H33       -14.4110   -4.7433   54.1736 H       1  ZINC000863246516    0.0800
     34 H34       -14.5148   -3.2535   55.1420 H       1  ZINC000863246516    0.0800
     35 H35       -12.3933   -4.5822   54.8546 H       1  ZINC000863246516    0.1000
     36 H36       -10.7517   -4.1482   54.3206 H       1  ZINC000863246516    0.1000
     37 H37       -10.8837   -2.0144   55.5157 H       1  ZINC000863246516    0.1000
     38 H38       -12.5758   -2.3370   55.9642 H       1  ZINC000863246516    0.1000
     39 H39       -10.7669   -3.6439   59.8994 H       1  ZINC000863246516    0.0700
     40 H40        -9.5100   -4.4922   58.9554 H       1  ZINC000863246516    0.0800
     41 H41        -9.7012   -2.8161   61.7895 H       1  ZINC000863246516    0.0800
     42 H42        -8.3770   -1.5797   61.6586 H       1  ZINC000863246516    0.0900
     43 H43       -10.3972    1.3142   59.2805 H       1  ZINC000863246516    0.1200
     44 H44       -10.3928    3.5477   60.3171 H       1  ZINC000863246516    0.1200
     45 H45       -10.1905    3.7703   62.7610 H       1  ZINC000863246516    0.1200
     46 H46        -9.9933    1.7594   64.1684 H       1  ZINC000863246516    0.1200
     47 H47       -10.0023   -0.4743   63.1321 H       1  ZINC000863246516    0.1200
     48 H48        -9.5044   -1.2422   57.0701 H       1  ZINC000863246516    0.0700
     49 H49       -11.0299   -0.8918   57.9245 H       1  ZINC000863246516    0.0700
@<TRIPOS>BOND
     1     1     2    1
     2     1    29    1
     3     1    30    1
     4     1    31    1
     5     2    28    1
     6     2     3    2
     7     3     4    1
     8     3     5    1
     9     4    32    1
    10     4    33    1
    11     4    34    1
    12     5     6    1
    13     5    26   am
    14     6     7    1
    15     6    35    1
    16     6    36    1
    17     7     8    1
    18     7    37    1
    19     7    38    1
    20     8     9    2
    21     8    10   am
    22    10    25    1
    23    10    11    1
    24    11    12    1
    25    11    39    1
    26    11    40    1
    27    12    13    1
    28    12    23    1
    29    12    14    1
    30    14    15    1
    31    14    41    1
    32    14    42    1
    33    15    16    1
    34    15    17    1
    35    15    23    1
    36    17    22   ar
    37    17    18   ar
    38    18    19   ar
    39    18    43    1
    40    19    20   ar
    41    19    44    1
    42    20    21   ar
    43    20    45    1
    44    21    22   ar
    45    21    46    1
    46    22    47    1
    47    23    24    1
    48    23    25    1
    49    25    48    1
    50    25    49    1
    51    26    27    2
    52    26    28    1
@<TRIPOS>SUBSTRUCTURE
     1 ZINC000863246516        1 TEMP              0 ****  ****    0 ROOT


##########                                Name:    ZINC000438893617
##########                DOCK_Rotatable_Bonds:                   5
##########                         Heavy_Atoms:                  29
##########                    Molecular_Weight:             412.596
##########                DOCK_Rotatable_Bonds:                   5
##########                       Formal_Charge:           0.0600001
##########                     HBond_Acceptors:                   5
##########                        HBond_Donors:                   0
##########                         Heavy_Atoms:                  29
##########                          Grid_Score:          -32.960808
##########                     Grid_vdw_energy:          -32.655754
##########                      Grid_es_energy:           -0.305055
##########           Internal_energy_repulsive:          169.844406

@<TRIPOS>MOLECULE
ZINC000438893617
 61 66 1 0 0
SMALL
USER_CHARGES


@<TRIPOS>ATOM
      1 C1        -12.8858   -3.8176   54.1190 C.3     1  ZINC000438893617   -0.1000
      2 C2        -13.4908   -2.8960   53.0916 C.2     1  ZINC000438893617   -0.0900
      3 C3        -14.7801   -2.5542   53.1052 C.2     1  ZINC000438893617   -0.1600
      4 C4        -15.7926   -3.0231   54.1181 C.3     1  ZINC000438893617   -0.0400
      5 H5        -15.4767   -3.8542   54.7486 H       1  ZINC000438893617    0.1400
      6 C6        -17.2693   -2.9573   53.7235 C.3     1  ZINC000438893617   -0.1400
      7 C7        -16.7050   -1.9674   54.7456 C.3     1  ZINC000438893617   -0.1800
      8 H8        -16.5734   -0.9339   54.4257 H       1  ZINC000438893617    0.1300
      9 C9        -17.0991   -2.1561   56.1880 C.2     1  ZINC000438893617    0.5500
     10 O10       -18.2203   -2.5250   56.4670 O.2     1  ZINC000438893617   -0.5300
     11 N11       -16.2055   -1.9151   57.1677 N.am    1  ZINC000438893617   -0.6100
     12 C12       -16.5733   -2.1025   58.5781 C.3     1  ZINC000438893617    0.0900
     13 C13       -15.5686   -3.0655   59.2228 C.3     1  ZINC000438893617    0.1000
     14 N14       -14.2088   -2.6112   58.8997 N.am    1  ZINC000438893617   -0.6100
     15 C15       -13.3149   -2.3710   59.8793 C.2     1  ZINC000438893617    0.5300
     16 O16       -13.6299   -2.5295   61.0398 O.2     1  ZINC000438893617   -0.5300
     17 C17       -11.9241   -1.9055   59.5328 C.3     1  ZINC000438893617   -0.0700
     18 C18       -11.2562   -2.9324   58.6161 C.3     1  ZINC000438893617   -0.1100
     19 C19        -9.8443   -2.4598   58.2642 C.3     1  ZINC000438893617   -0.0800
     20 C20        -9.0225   -2.3096   59.5461 C.3     1  ZINC000438893617   -0.1100
     21 C21        -9.6904   -1.2827   60.4627 C.3     1  ZINC000438893617   -0.0800
     22 C22        -9.7680    0.0667   59.7458 C.3     1  ZINC000438893617   -0.1100
     23 C23       -10.5898   -0.0835   58.4639 C.3     1  ZINC000438893617   -0.0900
     24 C24        -9.9219   -1.1104   57.5472 C.3     1  ZINC000438893617   -0.1100
     25 C25       -12.0018   -0.5562   58.8158 C.3     1  ZINC000438893617   -0.0900
     26 C26       -11.1023   -1.7554   60.8146 C.3     1  ZINC000438893617   -0.1200
     27 C27       -13.8410   -2.4237   57.4892 C.3     1  ZINC000438893617    0.0700
     28 C28       -14.8441   -1.4661   56.8443 C.3     1  ZINC000438893617    0.1000
     29 S29       -15.1175   -1.4722   51.7603 S.3     1  ZINC000438893617    0.1000
     30 C30       -13.4391   -1.5470   51.2399 C.2     1  ZINC000438893617   -0.2100
     31 C31       -12.7496   -2.3355   52.0656 C.2     1  ZINC000438893617   -0.1300
     32 H32       -12.5234   -3.2319   54.9639 H       1  ZINC000438893617    0.0700
     33 H33       -13.6413   -4.5236   54.4637 H       1  ZINC000438893617    0.0700
     34 H34       -12.0547   -4.3637   53.6727 H       1  ZINC000438893617    0.0700
     35 H35       -17.5086   -2.5749   52.7313 H       1  ZINC000438893617    0.1100
     36 H36       -17.9251   -3.7450   54.0947 H       1  ZINC000438893617    0.1100
     37 H37       -16.5434   -1.1431   59.0946 H       1  ZINC000438893617    0.0800
     38 H38       -17.5764   -2.5239   58.6419 H       1  ZINC000438893617    0.1000
     39 H39       -15.7062   -3.0679   60.3041 H       1  ZINC000438893617    0.1100
     40 H40       -15.7215   -4.0706   58.8298 H       1  ZINC000438893617    0.0700
     41 H41       -11.2008   -3.8937   59.1269 H       1  ZINC000438893617    0.0800
     42 H42       -11.8417   -3.0394   57.7029 H       1  ZINC000438893617    0.0700
     43 H43        -9.3684   -3.1914   57.6112 H       1  ZINC000438893617    0.0800
     44 H44        -8.9671   -3.2709   60.0569 H       1  ZINC000438893617    0.0600
     45 H45        -8.0165   -1.9729   59.2954 H       1  ZINC000438893617    0.0700
     46 H46        -9.1049   -1.1758   61.3759 H       1  ZINC000438893617    0.0800
     47 H47       -10.2439    0.7982   60.3988 H       1  ZINC000438893617    0.0600
     48 H48        -8.7622    0.4034   59.4951 H       1  ZINC000438893617    0.0700
     49 H49       -10.6452    0.8778   57.9531 H       1  ZINC000438893617    0.0700
     50 H50        -8.9160   -0.7737   57.2966 H       1  ZINC000438893617    0.0700
     51 H51       -10.5073   -1.2174   56.6340 H       1  ZINC000438893617    0.0600
     52 H52       -12.5873   -0.6632   57.9026 H       1  ZINC000438893617    0.0700
     53 H53       -12.4777    0.1754   59.4689 H       1  ZINC000438893617    0.0700
     54 H54       -11.5782   -1.0237   61.4676 H       1  ZINC000438893617    0.0700
     55 H55       -11.0470   -2.7166   61.3254 H       1  ZINC000438893617    0.0800
     56 H56       -12.8379   -2.0023   57.4255 H       1  ZINC000438893617    0.1300
     57 H57       -13.8709   -3.3832   56.9728 H       1  ZINC000438893617    0.0800
     58 H58       -14.7052   -1.4646   55.7632 H       1  ZINC000438893617    0.1100
     59 H59       -14.6935   -0.4602   57.2363 H       1  ZINC000438893617    0.0700
     60 H60       -13.0287   -1.0299   50.3852 H       1  ZINC000438893617    0.1700
     61 H61       -11.6945   -2.5286   51.9387 H       1  ZINC000438893617    0.1400
@<TRIPOS>BOND
     1     1     2    1
     2     1    32    1
     3     1    33    1
     4     1    34    1
     5     2    31    1
     6     2     3    2
     7     3     4    1
     8     3    29    1
     9     4     5    1
    10     4     7    1
    11     4     6    1
    12     6     7    1
    13     6    35    1
    14     6    36    1
    15     7     8    1
    16     7     9    1
    17     9    10    2
    18     9    11   am
    19    11    28    1
    20    11    12    1
    21    12    13    1
    22    12    37    1
    23    12    38    1
    24    13    14    1
    25    13    39    1
    26    13    40    1
    27    14    15   am
    28    14    27    1
    29    15    16    2
    30    15    17    1
    31    17    25    1
    32    17    26    1
    33    17    18    1
    34    18    19    1
    35    18    41    1
    36    18    42    1
    37    19    24    1
    38    19    20    1
    39    19    43    1
    40    20    21    1
    41    20    44    1
    42    20    45    1
    43    21    22    1
    44    21    26    1
    45    21    46    1
    46    22    23    1
    47    22    47    1
    48    22    48    1
    49    23    24    1
    50    23    25    1
    51    23    49    1
    52    24    50    1
    53    24    51    1
    54    25    52    1
    55    25    53    1
    56    26    54    1
    57    26    55    1
    58    27    28    1
    59    27    56    1
    60    27    57    1
    61    28    58    1
    62    28    59    1
    63    29    30    1
    64    30    31    2
    65    30    60    1
    66    31    61    1
@<TRIPOS>SUBSTRUCTURE
     1 ZINC000438893617        1 TEMP              0 ****  ****    0 ROOT


##########                                Name:    ZINC000484424341
##########                DOCK_Rotatable_Bonds:                   7
##########                         Heavy_Atoms:                  26
##########                    Molecular_Weight:             359.425
##########                DOCK_Rotatable_Bonds:                   7
##########                       Formal_Charge:          -0.0100009
##########                     HBond_Acceptors:                   7
##########                        HBond_Donors:                   1
##########                         Heavy_Atoms:                  26
##########                          Grid_Score:          -32.947720
##########                     Grid_vdw_energy:          -32.111126
##########                      Grid_es_energy:           -0.836592
##########           Internal_energy_repulsive:           11.265734

@<TRIPOS>MOLECULE
ZINC000484424341
 51 53 1 0 0
SMALL
USER_CHARGES


@<TRIPOS>ATOM
      1 C1        -14.5487    0.3800   64.5593 C.3     1  ZINC000484424341    0.0300
      2 O2        -13.6134    0.2112   63.4922 O.3     1  ZINC000484424341   -0.3800
      3 C3        -12.4341    1.0079   63.6213 C.3     1  ZINC000484424341    0.1300
      4 H4        -12.2154    1.1645   64.6776 H       1  ZINC000484424341    0.0700
      5 C5        -12.6551    2.3600   62.9404 C.3     1  ZINC000484424341   -0.1700
      6 C6        -11.2755    0.2997   62.9680 C.ar    1  ZINC000484424341   -0.0700
      7 C7        -10.0407    0.2766   63.5899 C.ar    1  ZINC000484424341   -0.1000
      8 C8         -8.9746   -0.3723   62.9938 C.ar    1  ZINC000484424341   -0.1000
      9 C9         -9.1401   -0.9994   61.7750 C.ar    1  ZINC000484424341   -0.1100
     10 C10       -10.3795   -0.9783   61.1471 C.ar    1  ZINC000484424341    0.1400
     11 N11       -10.5506   -1.6123   59.9139 N.am    1  ZINC000484424341   -0.6400
     12 C12       -10.2893   -2.9287   59.7909 C.2     1  ZINC000484424341    0.5100
     13 O13        -9.9054   -3.5636   60.7515 O.2     1  ZINC000484424341   -0.4900
     14 C14       -10.4722   -3.6064   58.4726 C.2     1  ZINC000484424341    0.5200
     15 O15        -9.5202   -4.1069   57.9103 O.2     1  ZINC000484424341   -0.5200
     16 N16       -11.6945   -3.6622   57.9075 N.am    1  ZINC000484424341   -0.5800
     17 C17       -12.0151   -4.2951   56.6198 C.3     1  ZINC000484424341    0.1100
     18 C18       -13.5339   -4.1369   56.3970 C.3     1  ZINC000484424341   -0.1500
     19 C19       -14.0756   -3.9224   57.8351 C.3     1  ZINC000484424341    0.1500
     20 H20       -14.2086   -4.8747   58.3486 H       1  ZINC000484424341    0.1100
     21 N21       -15.3262   -3.1597   57.8168 N.am    1  ZINC000484424341   -0.6100
     22 C22       -15.9735   -2.6594   56.5984 C.3     1  ZINC000484424341    0.1000
     23 C23       -17.4240   -2.3240   57.0102 C.3     1  ZINC000484424341   -0.1300
     24 C24       -17.2671   -2.0521   58.5243 C.3     1  ZINC000484424341   -0.1600
     25 C25       -16.0313   -2.8331   58.9137 C.2     1  ZINC000484424341    0.5200
     26 O26       -15.7185   -3.1169   60.0505 O.2     1  ZINC000484424341   -0.5200
     27 C27       -12.9327   -3.1045   58.4813 C.3     1  ZINC000484424341    0.0900
     28 C28       -11.4495   -0.3305   61.7513 C.ar    1  ZINC000484424341   -0.1300
     29 H29       -14.8673    1.4216   64.6018 H       1  ZINC000484424341    0.0400
     30 H30       -15.4154   -0.2583   64.3872 H       1  ZINC000484424341    0.0900
     31 H31       -14.0769    0.1055   65.5028 H       1  ZINC000484424341    0.0400
     32 H32       -12.8738    2.2035   61.8841 H       1  ZINC000484424341    0.0700
     33 H33       -13.4931    2.8722   63.4129 H       1  ZINC000484424341    0.0600
     34 H34       -11.7555    2.9677   63.0389 H       1  ZINC000484424341    0.0700
     35 H35        -9.9084    0.7667   64.5431 H       1  ZINC000484424341    0.1300
     36 H36        -8.0114   -0.3880   63.4822 H       1  ZINC000484424341    0.1300
     37 H37        -8.3071   -1.5056   61.3099 H       1  ZINC000484424341    0.1300
     38 H38       -10.8575   -1.1049   59.1462 H       1  ZINC000484424341    0.4200
     39 H39       -11.4691   -3.7994   55.8171 H       1  ZINC000484424341    0.0800
     40 H40       -11.7531   -5.3527   56.6511 H       1  ZINC000484424341    0.0800
     41 H41       -13.7438   -3.2687   55.7724 H       1  ZINC000484424341    0.0900
     42 H42       -13.9553   -5.0409   55.9571 H       1  ZINC000484424341    0.0900
     43 H43       -15.4656   -1.7631   56.2423 H       1  ZINC000484424341    0.0800
     44 H44       -15.9689   -3.4284   55.8259 H       1  ZINC000484424341    0.0800
     45 H45       -17.7820   -1.4358   56.4895 H       1  ZINC000484424341    0.0900
     46 H46       -18.0859   -3.1716   56.8327 H       1  ZINC000484424341    0.0800
     47 H47       -17.1236   -0.9873   58.7078 H       1  ZINC000484424341    0.1100
     48 H48       -18.1356   -2.4206   59.0701 H       1  ZINC000484424341    0.1000
     49 H49       -12.9426   -3.2287   59.5642 H       1  ZINC000484424341    0.0900
     50 H50       -13.0250   -2.0506   58.2187 H       1  ZINC000484424341    0.0900
     51 H51       -12.4143   -0.3124   61.2663 H       1  ZINC000484424341    0.1300
@<TRIPOS>BOND
     1     1     2    1
     2     1    29    1
     3     1    30    1
     4     1    31    1
     5     2     3    1
     6     3     4    1
     7     3     5    1
     8     3     6    1
     9     5    32    1
    10     5    33    1
    11     5    34    1
    12     6    28   ar
    13     6     7   ar
    14     7     8   ar
    15     7    35    1
    16     8     9   ar
    17     8    36    1
    18     9    10   ar
    19     9    37    1
    20    10    11    1
    21    10    28   ar
    22    11    12   am
    23    11    38    1
    24    12    13    2
    25    12    14    1
    26    14    15    2
    27    14    16   am
    28    16    27    1
    29    16    17    1
    30    17    18    1
    31    17    39    1
    32    17    40    1
    33    18    19    1
    34    18    41    1
    35    18    42    1
    36    19    20    1
    37    19    21    1
    38    19    27    1
    39    21    25   am
    40    21    22    1
    41    22    23    1
    42    22    43    1
    43    22    44    1
    44    23    24    1
    45    23    45    1
    46    23    46    1
    47    24    25    1
    48    24    47    1
    49    24    48    1
    50    25    26    2
    51    27    49    1
    52    27    50    1
    53    28    51    1
@<TRIPOS>SUBSTRUCTURE
     1 ZINC000484424341        1 TEMP              0 ****  ****    0 ROOT


##########                                Name:    ZINC000929592477
##########                DOCK_Rotatable_Bonds:                   7
##########                         Heavy_Atoms:                  28
##########                    Molecular_Weight:             399.517
##########                DOCK_Rotatable_Bonds:                   7
##########                       Formal_Charge:         -8.9407e-08
##########                     HBond_Acceptors:                   8
##########                        HBond_Donors:                   3
##########                         Heavy_Atoms:                  28
##########                          Grid_Score:          -32.897053
##########                     Grid_vdw_energy:          -32.335682
##########                      Grid_es_energy:           -0.561371
##########           Internal_energy_repulsive:           17.577784

@<TRIPOS>MOLECULE
ZINC000929592477
 53 56 1 0 0
SMALL
USER_CHARGES


@<TRIPOS>ATOM
      1 O1        -13.9890   -3.7992   53.6650 O.2     1  ZINC000929592477   -0.5700
      2 C2        -14.0238   -2.7065   54.1973 C.2     1  ZINC000929592477    0.7100
      3 N3        -14.2557   -1.6039   53.4578 N.am    1  ZINC000929592477   -0.6800
      4 C4        -14.4513   -1.7160   52.0742 C.ar    1  ZINC000929592477    0.1600
      5 C5        -15.5420   -2.4205   51.5822 C.ar    1  ZINC000929592477   -0.1300
      6 C6        -15.7348   -2.5317   50.2197 C.ar    1  ZINC000929592477   -0.0800
      7 C7        -14.8374   -1.9379   49.3407 C.ar    1  ZINC000929592477   -0.1000
      8 S8        -15.0832   -2.0787   47.6017 S.3     1  ZINC000929592477   -0.1100
      9 C9        -16.7276   -2.8351   47.4819 C.3     1  ZINC000929592477   -0.0800
     10 C10       -17.8087   -1.8722   48.0322 C.3     1  ZINC000929592477   -0.1200
     11 C11       -19.0961   -2.3634   47.3250 C.3     1  ZINC000929592477   -0.1200
     12 C12       -18.6270   -2.7409   45.9047 C.3     1  ZINC000929592477   -0.1200
     13 C13       -17.1210   -3.0409   46.0044 C.3     1  ZINC000929592477   -0.1000
     14 C14       -13.7465   -1.2325   49.8334 C.ar    1  ZINC000929592477   -0.1200
     15 C15       -13.5574   -1.1176   51.1961 C.ar    1  ZINC000929592477   -0.1000
     16 N16       -13.8357   -2.5986   55.5275 N.am    1  ZINC000929592477   -0.7300
     17 C17       -13.5836   -3.7972   56.3312 C.3     1  ZINC000929592477    0.1500
     18 H18       -13.8857   -4.6936   55.7897 H       1  ZINC000929592477    0.1200
     19 C19       -14.3164   -3.7072   57.6959 C.3     1  ZINC000929592477   -0.1400
     20 C20       -13.3219   -2.8592   58.5275 C.3     1  ZINC000929592477    0.1100
     21 N21       -11.9870   -3.3088   58.0928 N.pl3   1  ZINC000929592477   -0.6000
     22 C22       -10.8258   -3.2129   58.8320 C.2     1  ZINC000929592477    0.4600
     23 C23       -10.7415   -2.3172   59.8850 C.2     1  ZINC000929592477   -0.4000
     24 C24        -9.5441   -2.2510   60.6106 C.2     1  ZINC000929592477    0.5300
     25 O25        -9.4260   -1.4762   61.5466 O.2     1  ZINC000929592477   -0.5500
     26 N26        -8.5244   -3.0602   60.2550 N.am    1  ZINC000929592477   -0.6400
     27 C27        -8.6622   -3.9134   59.2205 C.2     1  ZINC000929592477    0.4100
     28 N28        -9.7719   -3.9909   58.5389 N.2     1  ZINC000929592477   -0.5700
     29 C29       -12.0969   -3.8796   56.7372 C.3     1  ZINC000929592477    0.1100
     30 H30       -14.2874   -0.7326   53.8831 H       1  ZINC000929592477    0.4100
     31 H31       -16.2394   -2.8821   52.2655 H       1  ZINC000929592477    0.1300
     32 H32       -16.5827   -3.0802   49.8372 H       1  ZINC000929592477    0.1300
     33 H33       -16.7501   -3.7838   48.0182 H       1  ZINC000929592477    0.1000
     34 H34       -17.9001   -1.9717   49.1139 H       1  ZINC000929592477    0.0700
     35 H35       -17.5852   -0.8418   47.7556 H       1  ZINC000929592477    0.0800
     36 H36       -19.5034   -3.2355   47.8366 H       1  ZINC000929592477    0.0700
     37 H37       -19.8365   -1.5646   47.2825 H       1  ZINC000929592477    0.0700
     38 H38       -19.1615   -3.6251   45.5575 H       1  ZINC000929592477    0.0700
     39 H39       -18.7974   -1.9088   45.2217 H       1  ZINC000929592477    0.0700
     40 H40       -16.5606   -2.3543   45.3699 H       1  ZINC000929592477    0.0700
     41 H41       -16.9248   -4.0706   45.7058 H       1  ZINC000929592477    0.0800
     42 H42       -13.0487   -0.7708   49.1505 H       1  ZINC000929592477    0.1300
     43 H43       -12.7096   -0.5691   51.5792 H       1  ZINC000929592477    0.1400
     44 H44       -13.8673   -1.7274   55.9527 H       1  ZINC000929592477    0.4000
     45 H45       -15.2738   -3.1966   57.5923 H       1  ZINC000929592477    0.0900
     46 H46       -14.4483   -4.6963   58.1344 H       1  ZINC000929592477    0.0900
     47 H47       -13.4543   -1.7991   58.3114 H       1  ZINC000929592477    0.0700
     48 H48       -13.4584   -3.0501   59.5920 H       1  ZINC000929592477    0.0800
     49 H49       -11.5785   -1.6845   60.1408 H       1  ZINC000929592477    0.1500
     50 H50        -7.6883   -3.0275   60.7458 H       1  ZINC000929592477    0.4200
     51 H51        -7.8340   -4.5524   58.9517 H       1  ZINC000929592477    0.2100
     52 H52       -11.7693   -4.9191   56.7451 H       1  ZINC000929592477    0.0900
     53 H53       -11.4885   -3.3021   56.0413 H       1  ZINC000929592477    0.0800
@<TRIPOS>BOND
     1     1     2    2
     2     2     3   am
     3     2    16   am
     4     3     4    1
     5     3    30    1
     6     4    15   ar
     7     4     5   ar
     8     5     6   ar
     9     5    31    1
    10     6     7   ar
    11     6    32    1
    12     7     8    1
    13     7    14   ar
    14     8     9    1
    15     9    13    1
    16     9    10    1
    17     9    33    1
    18    10    11    1
    19    10    34    1
    20    10    35    1
    21    11    12    1
    22    11    36    1
    23    11    37    1
    24    12    13    1
    25    12    38    1
    26    12    39    1
    27    13    40    1
    28    13    41    1
    29    14    15   ar
    30    14    42    1
    31    15    43    1
    32    16    17    1
    33    16    44    1
    34    17    18    1
    35    17    29    1
    36    17    19    1
    37    19    20    1
    38    19    45    1
    39    19    46    1
    40    20    21    1
    41    20    47    1
    42    20    48    1
    43    21    22    1
    44    21    29    1
    45    22    28    1
    46    22    23    2
    47    23    24    1
    48    23    49    1
    49    24    25    2
    50    24    26   am
    51    26    27    1
    52    26    50    1
    53    27    28    2
    54    27    51    1
    55    29    52    1
    56    29    53    1
@<TRIPOS>SUBSTRUCTURE
     1 ZINC000929592477        1 TEMP              0 ****  ****    0 ROOT


##########                                Name:    ZINC000646817380
##########                DOCK_Rotatable_Bonds:                   6
##########                         Heavy_Atoms:                  25
##########                    Molecular_Weight:             347.457
##########                DOCK_Rotatable_Bonds:                   6
##########                       Formal_Charge:           0.0199991
##########                     HBond_Acceptors:                   6
##########                        HBond_Donors:                   1
##########                         Heavy_Atoms:                  25
##########                          Grid_Score:          -32.870110
##########                     Grid_vdw_energy:          -30.483070
##########                      Grid_es_energy:           -2.387039
##########           Internal_energy_repulsive:           62.502029

@<TRIPOS>MOLECULE
ZINC000646817380
 54 56 1 0 0
SMALL
USER_CHARGES


@<TRIPOS>ATOM
      1 C1        -10.0539    1.9181   66.1851 C.3     1  ZINC000646817380   -0.1500
      2 C2         -8.9910    1.8408   65.0873 C.3     1  ZINC000646817380   -0.0100
      3 C3         -7.6614    1.3902   65.6955 C.3     1  ZINC000646817380   -0.1500
      4 C4         -9.4244    0.8504   64.0373 C.2     1  ZINC000646817380   -0.0100
      5 C5         -8.6188    0.0765   63.2751 C.2     1  ZINC000646817380   -0.2200
      6 C6         -9.5211   -0.6615   62.4631 C.2     1  ZINC000646817380    0.2400
      7 N7         -9.1926   -1.6098   61.4961 N.am    1  ZINC000646817380   -0.6100
      8 C8        -10.1667   -2.3013   60.8723 C.2     1  ZINC000646817380    0.5200
      9 O9        -11.3299   -2.0974   61.1516 O.2     1  ZINC000646817380   -0.4900
     10 C10        -9.8145   -3.3191   59.8371 C.2     1  ZINC000646817380    0.5300
     11 O11        -8.7909   -3.9624   59.9423 O.2     1  ZINC000646817380   -0.5100
     12 N12       -10.6335   -3.5229   58.7863 N.am    1  ZINC000646817380   -0.5800
     13 C13       -10.4097   -4.4881   57.7002 C.3     1  ZINC000646817380    0.1000
     14 C14       -11.5897   -4.3510   56.7150 C.3     1  ZINC000646817380   -0.1300
     15 C15       -12.1214   -2.9228   57.0063 C.3     1  ZINC000646817380   -0.1000
     16 H16       -11.5368   -2.1722   56.4744 H       1  ZINC000646817380    0.1000
     17 C17       -13.6059   -2.8080   56.6545 C.3     1  ZINC000646817380   -0.0700
     18 H18       -14.0951   -3.7739   56.7804 H       1  ZINC000646817380    0.0800
     19 C19       -14.2820   -1.7521   57.5534 C.3     1  ZINC000646817380   -0.1300
     20 C20       -15.3000   -1.0530   56.6186 C.3     1  ZINC000646817380   -0.1300
     21 C21       -14.5363   -0.9833   55.2728 C.3     1  ZINC000646817380   -0.1200
     22 C22       -13.7677   -2.3204   55.2040 C.3     1  ZINC000646817380   -0.0700
     23 C23       -12.3933   -2.1027   54.5680 C.3     1  ZINC000646817380   -0.1600
     24 C24       -14.5657   -3.3425   54.3919 C.3     1  ZINC000646817380   -0.1400
     25 C25       -11.9052   -2.8193   58.5390 C.3     1  ZINC000646817380    0.0900
     26 N26       -10.7215   -0.2726   62.8053 N.2     1  ZINC000646817380   -0.3800
     27 O27       -10.6840    0.5607   63.6806 O.3     1  ZINC000646817380    0.1100
     28 H28        -9.7404    2.6344   66.9445 H       1  ZINC000646817380    0.0700
     29 H29       -11.0011    2.2391   65.7518 H       1  ZINC000646817380    0.0600
     30 H30       -10.1773    0.9357   66.6411 H       1  ZINC000646817380    0.0600
     31 H31        -8.8675    2.8231   64.6313 H       1  ZINC000646817380    0.1100
     32 H32        -7.7848    0.4078   66.1515 H       1  ZINC000646817380    0.0600
     33 H33        -6.9042    1.3351   64.9134 H       1  ZINC000646817380    0.0600
     34 H34        -7.3479    2.1065   66.4550 H       1  ZINC000646817380    0.0700
     35 H35        -7.5398    0.0303   63.2820 H       1  ZINC000646817380    0.1900
     36 H36        -8.2629   -1.7719   61.2720 H       1  ZINC000646817380    0.4300
     37 H37        -9.4731   -4.2622   57.1905 H       1  ZINC000646817380    0.0800
     38 H38       -10.3797   -5.5001   58.1039 H       1  ZINC000646817380    0.0800
     39 H39       -11.2430   -4.4308   55.6846 H       1  ZINC000646817380    0.0900
     40 H40       -12.3556   -5.0978   56.9243 H       1  ZINC000646817380    0.0800
     41 H41       -14.7960   -2.2326   58.3859 H       1  ZINC000646817380    0.0700
     42 H42       -13.5465   -1.0360   57.9201 H       1  ZINC000646817380    0.0800
     43 H43       -16.2060   -1.6506   56.5182 H       1  ZINC000646817380    0.0700
     44 H44       -15.5342   -0.0524   56.9821 H       1  ZINC000646817380    0.0700
     45 H45       -15.2361   -0.9028   54.4409 H       1  ZINC000646817380    0.0700
     46 H46       -13.8419   -0.1431   55.2711 H       1  ZINC000646817380    0.0700
     47 H47       -11.9811   -1.1532   54.9099 H       1  ZINC000646817380    0.0700
     48 H48       -11.7260   -2.9141   54.8584 H       1  ZINC000646817380    0.0600
     49 H49       -12.4937   -2.0856   53.4828 H       1  ZINC000646817380    0.0500
     50 H50       -14.6957   -2.9759   53.3737 H       1  ZINC000646817380    0.0600
     51 H51       -14.0273   -4.2900   54.3710 H       1  ZINC000646817380    0.0500
     52 H52       -15.5425   -3.4897   54.8525 H       1  ZINC000646817380    0.0600
     53 H53       -12.7232   -3.3050   59.0711 H       1  ZINC000646817380    0.0900
     54 H54       -11.8222   -1.7753   58.8407 H       1  ZINC000646817380    0.1000
@<TRIPOS>BOND
     1     1     2    1
     2     1    28    1
     3     1    29    1
     4     1    30    1
     5     2     3    1
     6     2     4    1
     7     2    31    1
     8     3    32    1
     9     3    33    1
    10     3    34    1
    11     4    27    1
    12     4     5    2
    13     5     6    1
    14     5    35    1
    15     6     7    1
    16     6    26    2
    17     7     8   am
    18     7    36    1
    19     8     9    2
    20     8    10    1
    21    10    11    2
    22    10    12   am
    23    12    25    1
    24    12    13    1
    25    13    14    1
    26    13    37    1
    27    13    38    1
    28    14    15    1
    29    14    39    1
    30    14    40    1
    31    15    16    1
    32    15    17    1
    33    15    25    1
    34    17    18    1
    35    17    22    1
    36    17    19    1
    37    19    20    1
    38    19    41    1
    39    19    42    1
    40    20    21    1
    41    20    43    1
    42    20    44    1
    43    21    22    1
    44    21    45    1
    45    21    46    1
    46    22    23    1
    47    22    24    1
    48    23    47    1
    49    23    48    1
    50    23    49    1
    51    24    50    1
    52    24    51    1
    53    24    52    1
    54    25    53    1
    55    25    54    1
    56    26    27    1
@<TRIPOS>SUBSTRUCTURE
     1 ZINC000646817380        1 TEMP              0 ****  ****    0 ROOT


##########                                Name:    ZINC000463741321
##########                DOCK_Rotatable_Bonds:                   7
##########                         Heavy_Atoms:                  26
##########                    Molecular_Weight:             354.467
##########                DOCK_Rotatable_Bonds:                   7
##########                       Formal_Charge:         -6.4075e-07
##########                     HBond_Acceptors:                   4
##########                        HBond_Donors:                   1
##########                         Heavy_Atoms:                  26
##########                          Grid_Score:          -32.868446
##########                     Grid_vdw_energy:          -32.389889
##########                      Grid_es_energy:           -0.478558
##########           Internal_energy_repulsive:           12.103199

@<TRIPOS>MOLECULE
ZINC000463741321
 53 55 1 0 0
SMALL
USER_CHARGES


@<TRIPOS>ATOM
      1 C1        -14.3175   -5.4207   56.4653 C.3     1  ZINC000463741321   -0.1500
      2 C2        -13.5232   -4.1410   56.1961 C.3     1  ZINC000463741321   -0.1100
      3 H3        -12.7638   -4.3373   55.4392 H       1  ZINC000463741321    0.1000
      4 C4        -14.4705   -3.0483   55.6967 C.3     1  ZINC000463741321   -0.0900
      5 C5        -14.6178   -3.1560   54.1776 C.3     1  ZINC000463741321   -0.0800
      6 C6        -13.4112   -2.5468   53.5115 C.ar    1  ZINC000463741321   -0.1200
      7 C7        -13.2757   -1.1731   53.4498 C.ar    1  ZINC000463741321   -0.0900
      8 C8        -12.1687   -0.6137   52.8385 C.ar    1  ZINC000463741321   -0.1300
      9 C9        -11.1967   -1.4280   52.2882 C.ar    1  ZINC000463741321   -0.1000
     10 C10       -11.3303   -2.8023   52.3484 C.ar    1  ZINC000463741321   -0.1500
     11 C11       -12.4349   -3.3635   52.9659 C.ar    1  ZINC000463741321    0.1000
     12 F12       -12.5665   -4.7068   53.0253 F       1  ZINC000463741321   -0.1400
     13 C13       -12.8576   -3.6856   57.4691 C.2     1  ZINC000463741321    0.5200
     14 O14       -13.5041   -3.5903   58.4909 O.2     1  ZINC000463741321   -0.5300
     15 N15       -11.5439   -3.3843   57.4723 N.am    1  ZINC000463741321   -0.7300
     16 C16       -10.8973   -2.9400   58.7095 C.3     1  ZINC000463741321    0.1500
     17 H17       -11.5481   -3.1536   59.5573 H       1  ZINC000463741321    0.1000
     18 C18        -9.5685   -3.6799   58.8861 C.3     1  ZINC000463741321   -0.1300
     19 C19        -8.8714   -3.1665   60.1490 C.3     1  ZINC000463741321   -0.1200
     20 C20        -8.6642   -1.6546   60.0326 C.3     1  ZINC000463741321    0.0600
     21 N21        -9.9643   -0.9926   59.8661 N.3     1  ZINC000463741321   -0.4800
     22 C22        -9.8249    0.3970   59.8886 C.ar    1  ZINC000463741321    0.1100
     23 C23       -10.3151    1.1285   60.9630 C.ar    1  ZINC000463741321   -0.1700
     24 C24       -10.1751    2.5022   60.9823 C.ar    1  ZINC000463741321   -0.0900
     25 C25        -9.5483    3.1497   59.9335 C.ar    1  ZINC000463741321   -0.1500
     26 C26        -9.0591    2.4246   58.8624 C.ar    1  ZINC000463741321   -0.0900
     27 C27        -9.1907    1.0500   58.8393 C.ar    1  ZINC000463741321   -0.1400
     28 C28       -10.6323   -1.4345   58.6352 C.3     1  ZINC000463741321    0.0500
     29 H29       -15.0769   -5.2244   57.2223 H       1  ZINC000463741321    0.0600
     30 H30       -14.7989   -5.7500   55.5446 H       1  ZINC000463741321    0.0700
     31 H31       -13.6426   -6.1992   56.8211 H       1  ZINC000463741321    0.0600
     32 H32       -15.4466   -3.1713   56.1660 H       1  ZINC000463741321    0.0700
     33 H33       -14.0644   -2.0700   55.9540 H       1  ZINC000463741321    0.0700
     34 H34       -14.6983   -4.2054   53.8940 H       1  ZINC000463741321    0.0800
     35 H35       -15.5150   -2.6243   53.8609 H       1  ZINC000463741321    0.0800
     36 H36       -14.0349   -0.5360   53.8787 H       1  ZINC000463741321    0.1300
     37 H37       -12.0637    0.4600   52.7907 H       1  ZINC000463741321    0.1300
     38 H38       -10.3326   -0.9899   51.8107 H       1  ZINC000463741321    0.1300
     39 H39       -10.5709   -3.4382   51.9177 H       1  ZINC000463741321    0.1400
     40 H40       -11.0267   -3.4617   56.6554 H       1  ZINC000463741321    0.4000
     41 H41        -9.7570   -4.7491   58.9831 H       1  ZINC000463741321    0.0700
     42 H42        -8.9325   -3.4983   58.0196 H       1  ZINC000463741321    0.0600
     43 H43        -9.4901   -3.3831   61.0198 H       1  ZINC000463741321    0.0800
     44 H44        -7.9049   -3.6589   60.2569 H       1  ZINC000463741321    0.0800
     45 H45        -8.1809   -1.2838   60.9365 H       1  ZINC000463741321    0.0900
     46 H46        -8.0340   -1.4397   59.1697 H       1  ZINC000463741321    0.0500
     47 H47       -10.8054    0.6234   61.7821 H       1  ZINC000463741321    0.1200
     48 H48       -10.5560    3.0715   61.8173 H       1  ZINC000463741321    0.1200
     49 H49        -9.4408    4.2243   59.9508 H       1  ZINC000463741321    0.1200
     50 H50        -8.5701    2.9334   58.0448 H       1  ZINC000463741321    0.1200
     51 H51        -8.8082    0.4842   58.0027 H       1  ZINC000463741321    0.1300
     52 H52        -9.9933   -1.2209   57.7785 H       1  ZINC000463741321    0.0500
     53 H53       -11.5778   -0.9035   58.5244 H       1  ZINC000463741321    0.0900
@<TRIPOS>BOND
     1     1     2    1
     2     1    29    1
     3     1    30    1
     4     1    31    1
     5     2     3    1
     6     2     4    1
     7     2    13    1
     8     4     5    1
     9     4    32    1
    10     4    33    1
    11     5     6    1
    12     5    34    1
    13     5    35    1
    14     6    11   ar
    15     6     7   ar
    16     7     8   ar
    17     7    36    1
    18     8     9   ar
    19     8    37    1
    20     9    10   ar
    21     9    38    1
    22    10    11   ar
    23    10    39    1
    24    11    12    1
    25    13    14    2
    26    13    15   am
    27    15    16    1
    28    15    40    1
    29    16    17    1
    30    16    28    1
    31    16    18    1
    32    18    19    1
    33    18    41    1
    34    18    42    1
    35    19    20    1
    36    19    43    1
    37    19    44    1
    38    20    21    1
    39    20    45    1
    40    20    46    1
    41    21    22    1
    42    21    28    1
    43    22    27   ar
    44    22    23   ar
    45    23    24   ar
    46    23    47    1
    47    24    25   ar
    48    24    48    1
    49    25    26   ar
    50    25    49    1
    51    26    27   ar
    52    26    50    1
    53    27    51    1
    54    28    52    1
    55    28    53    1
@<TRIPOS>SUBSTRUCTURE
     1 ZINC000463741321        1 TEMP              0 ****  ****    0 ROOT


##########                                Name:    ZINC000179743483
##########                DOCK_Rotatable_Bonds:                   5
##########                         Heavy_Atoms:                  23
##########                    Molecular_Weight:             393.347
##########                DOCK_Rotatable_Bonds:                   5
##########                       Formal_Charge:          -0.0199999
##########                     HBond_Acceptors:                   4
##########                        HBond_Donors:                   0
##########                         Heavy_Atoms:                  23
##########                          Grid_Score:          -32.840450
##########                     Grid_vdw_energy:          -33.361198
##########                      Grid_es_energy:            0.520749
##########           Internal_energy_repulsive:           20.934942

@<TRIPOS>MOLECULE
ZINC000179743483
 44 46 1 0 0
SMALL
USER_CHARGES


@<TRIPOS>ATOM
      1 C1         -9.5319   -4.6881   58.4760 C.3     1  ZINC000179743483   -0.1400
      2 C2         -9.7367   -3.1812   58.6447 C.3     1  ZINC000179743483   -0.1000
      3 H3         -9.0357   -2.6454   58.0047 H       1  ZINC000179743483    0.1000
      4 C4        -11.1692   -2.8142   58.2517 C.3     1  ZINC000179743483   -0.0700
      5 C5        -11.2641   -2.6960   56.7523 C.ar    1  ZINC000179743483   -0.0600
      6 C6        -11.0296   -1.4794   56.1389 C.ar    1  ZINC000179743483   -0.1100
      7 C7        -11.1161   -1.3707   54.7637 C.ar    1  ZINC000179743483   -0.0900
      8 C8        -11.4373   -2.4792   54.0012 C.ar    1  ZINC000179743483   -0.0900
      9 Br9       -11.5551   -2.3312   52.1197 Br      1  ZINC000179743483   -0.0500
     10 C10       -11.6718   -3.6962   54.6155 C.ar    1  ZINC000179743483   -0.0900
     11 C11       -11.5800   -3.8053   55.9903 C.ar    1  ZINC000179743483   -0.1100
     12 C12        -9.4969   -2.7995   60.0826 C.2     1  ZINC000179743483    0.5200
     13 O13        -9.4658   -3.6563   60.9404 O.2     1  ZINC000179743483   -0.5300
     14 N14        -9.3168   -1.5059   60.4154 N.am    1  ZINC000179743483   -0.6100
     15 C15        -9.3517   -0.4567   59.3875 C.3     1  ZINC000179743483    0.1000
     16 C16       -10.3681    0.6103   59.8063 C.3     1  ZINC000179743483   -0.1400
     17 C17       -10.0225    1.1157   61.2089 C.3     1  ZINC000179743483   -0.1100
     18 C18       -10.1014   -0.0437   62.2045 C.3     1  ZINC000179743483   -0.0200
     19 H19       -11.1044   -0.4704   62.1874 H       1  ZINC000179743483    0.0900
     20 C20        -9.7934    0.4616   63.5905 C.2     1  ZINC000179743483    0.0500
     21 N21        -8.9748   -0.0985   64.4157 N.2     1  ZINC000179743483   -0.4700
     22 C22        -8.8201    0.4761   65.5916 C.2     1  ZINC000179743483    0.0400
     23 C23        -9.5488    1.5823   65.7680 C.2     1  ZINC000179743483   -0.2600
     24 S24       -10.4726    1.8640   64.2942 S.3     1  ZINC000179743483    0.1300
     25 C25        -9.0881   -1.1175   61.8138 C.3     1  ZINC000179743483    0.1200
     26 H26       -10.1785   -5.2228   59.1717 H       1  ZINC000179743483    0.0700
     27 H27        -9.7799   -4.9764   57.4546 H       1  ZINC000179743483    0.0700
     28 H28        -8.4911   -4.9385   58.6817 H       1  ZINC000179743483    0.0600
     29 H29       -11.8514   -3.5901   58.5988 H       1  ZINC000179743483    0.0900
     30 H30       -11.4387   -1.8622   58.7090 H       1  ZINC000179743483    0.0800
     31 H31       -10.7792   -0.6140   56.7343 H       1  ZINC000179743483    0.1300
     32 H32       -10.9332   -0.4202   54.2845 H       1  ZINC000179743483    0.1300
     33 H33       -11.9226   -4.5620   54.0206 H       1  ZINC000179743483    0.1300
     34 H34       -11.7630   -4.7555   56.4700 H       1  ZINC000179743483    0.1300
     35 H35        -8.3645   -0.0041   59.2937 H       1  ZINC000179743483    0.0700
     36 H36        -9.6495   -0.8903   58.4328 H       1  ZINC000179743483    0.0900
     37 H37       -10.3345    1.4412   59.1016 H       1  ZINC000179743483    0.0800
     38 H38       -11.3685    0.1775   59.8118 H       1  ZINC000179743483    0.0700
     39 H39        -9.0126    1.5258   61.2084 H       1  ZINC000179743483    0.0800
     40 H40       -10.7297    1.8926   61.4994 H       1  ZINC000179743483    0.0700
     41 H41        -8.1589    0.0847   66.3506 H       1  ZINC000179743483    0.1800
     42 H42        -9.5655    2.1972   66.6557 H       1  ZINC000179743483    0.1800
     43 H43        -9.2092   -1.9868   62.4603 H       1  ZINC000179743483    0.0900
     44 H44        -8.0779   -0.7213   61.9163 H       1  ZINC000179743483    0.0800
@<TRIPOS>BOND
     1     1     2    1
     2     1    26    1
     3     1    27    1
     4     1    28    1
     5     2     3    1
     6     2     4    1
     7     2    12    1
     8     4     5    1
     9     4    29    1
    10     4    30    1
    11     5    11   ar
    12     5     6   ar
    13     6     7   ar
    14     6    31    1
    15     7     8   ar
    16     7    32    1
    17     8     9    1
    18     8    10   ar
    19    10    11   ar
    20    10    33    1
    21    11    34    1
    22    12    13    2
    23    12    14   am
    24    14    25    1
    25    14    15    1
    26    15    16    1
    27    15    35    1
    28    15    36    1
    29    16    17    1
    30    16    37    1
    31    16    38    1
    32    17    18    1
    33    17    39    1
    34    17    40    1
    35    18    19    1
    36    18    20    1
    37    18    25    1
    38    20    24    1
    39    20    21    2
    40    21    22    1
    41    22    23    2
    42    22    41    1
    43    23    24    1
    44    23    42    1
    45    25    43    1
    46    25    44    1
@<TRIPOS>SUBSTRUCTURE
     1 ZINC000179743483        1 TEMP              0 ****  ****    0 ROOT


##########                                Name:    ZINC001341052241
##########                DOCK_Rotatable_Bonds:                   7
##########                         Heavy_Atoms:                  24
##########                    Molecular_Weight:             336.478
##########                DOCK_Rotatable_Bonds:                   7
##########                       Formal_Charge:         5.96046e-08
##########                     HBond_Acceptors:                   6
##########                        HBond_Donors:                   0
##########                         Heavy_Atoms:                  24
##########                          Grid_Score:          -32.838799
##########                     Grid_vdw_energy:          -31.988791
##########                      Grid_es_energy:           -0.850008
##########           Internal_energy_repulsive:            8.851341

@<TRIPOS>MOLECULE
ZINC001341052241
 56 58 1 0 0
SMALL
USER_CHARGES


@<TRIPOS>ATOM
      1 C1        -14.2948   -4.7102   57.2606 C.3     1  ZINC001341052241   -0.1700
      2 C2        -13.7621   -3.3453   56.8200 C.3     1  ZINC001341052241    0.1100
      3 N3        -12.4852   -3.5211   56.1239 N.pl3   1  ZINC001341052241   -0.4500
      4 C4        -12.2993   -3.9022   54.8238 C.2     1  ZINC001341052241    0.1800
      5 C5        -13.3800   -4.2235   53.8240 C.3     1  ZINC001341052241    0.1500
      6 O6        -14.1673   -3.0558   53.5819 O.3     1  ZINC001341052241   -0.3700
      7 C7        -13.6037   -2.1644   52.6175 C.3     1  ZINC001341052241    0.0900
      8 C8        -12.9504   -0.9824   53.3362 C.3     1  ZINC001341052241   -0.1400
      9 C9        -12.3469   -0.0281   52.3036 C.3     1  ZINC001341052241   -0.1200
     10 C10       -13.4509    0.4853   51.3771 C.3     1  ZINC001341052241   -0.1200
     11 C11       -14.1042   -0.6968   50.6585 C.3     1  ZINC001341052241   -0.1200
     12 C12       -14.7078   -1.6511   51.6910 C.3     1  ZINC001341052241   -0.1200
     13 N13       -11.0145   -3.9354   54.6096 N.2     1  ZINC001341052241   -0.2600
     14 N14       -10.3810   -3.5982   55.6759 N.2     1  ZINC001341052241   -0.3100
     15 C15       -11.2345   -3.3390   56.6383 C.2     1  ZINC001341052241    0.3500
     16 N16       -10.9245   -2.9483   57.9312 N.3     1  ZINC001341052241   -0.4600
     17 C17        -9.7428   -3.6645   58.4283 C.3     1  ZINC001341052241    0.0700
     18 C18        -9.5172   -3.3180   59.9018 C.3     1  ZINC001341052241   -0.1100
     19 C19        -9.3168   -1.8064   60.0407 C.3     1  ZINC001341052241   -0.0900
     20 C20        -9.1514   -1.4462   61.5185 C.3     1  ZINC001341052241    0.0700
     21 O21        -9.1630   -0.0249   61.6666 O.3     1  ZINC001341052241   -0.3900
     22 C22        -9.0860    0.4188   63.0228 C.3     1  ZINC001341052241    0.0300
     23 C23       -10.5404   -1.0828   59.4716 C.3     1  ZINC001341052241   -0.1100
     24 C24       -10.7364   -1.4940   58.0106 C.3     1  ZINC001341052241    0.0700
     25 H25       -14.4326   -5.3460   56.3861 H       1  ZINC001341052241    0.0600
     26 H26       -13.5815   -5.1765   57.9402 H       1  ZINC001341052241    0.0700
     27 H27       -15.2500   -4.5804   57.7696 H       1  ZINC001341052241    0.0800
     28 H28       -13.6146   -2.7130   57.6955 H       1  ZINC001341052241    0.0900
     29 H29       -14.4802   -2.8744   56.1486 H       1  ZINC001341052241    0.1000
     30 H30       -12.9248   -4.5546   52.8906 H       1  ZINC001341052241    0.0900
     31 H31       -14.0164   -5.0154   54.2188 H       1  ZINC001341052241    0.0700
     32 H32       -12.8527   -2.6927   52.0299 H       1  ZINC001341052241    0.0600
     33 H33       -13.7013   -0.4542   53.9237 H       1  ZINC001341052241    0.0700
     34 H34       -12.1638   -1.3481   53.9962 H       1  ZINC001341052241    0.0700
     35 H35       -11.5958   -0.5562   51.7161 H       1  ZINC001341052241    0.0600
     36 H36       -11.8814    0.8141   52.8157 H       1  ZINC001341052241    0.0700
     37 H37       -13.0210    1.1652   50.6415 H       1  ZINC001341052241    0.0600
     38 H38       -14.2019    1.0134   51.9647 H       1  ZINC001341052241    0.0600
     39 H39       -13.3533   -1.2249   50.0708 H       1  ZINC001341052241    0.0600
     40 H40       -14.8908   -0.3310   49.9984 H       1  ZINC001341052241    0.0700
     41 H41       -15.1732   -2.4933   51.1790 H       1  ZINC001341052241    0.0700
     42 H42       -15.4588   -1.1229   52.2785 H       1  ZINC001341052241    0.0700
     43 H43        -8.8686   -3.3696   57.8479 H       1  ZINC001341052241    0.0600
     44 H44        -9.9001   -4.7383   58.3278 H       1  ZINC001341052241    0.0800
     45 H45        -8.6311   -3.8376   60.2662 H       1  ZINC001341052241    0.0800
     46 H46       -10.3854   -3.6251   60.4850 H       1  ZINC001341052241    0.0800
     47 H47        -8.4256   -1.5050   59.4903 H       1  ZINC001341052241    0.0800
     48 H48        -8.2042   -1.8419   61.8851 H       1  ZINC001341052241    0.0500
     49 H49        -9.9717   -1.8779   62.0918 H       1  ZINC001341052241    0.0500
     50 H50        -9.9376    0.0302   63.5811 H       1  ZINC001341052241    0.0400
     51 H51        -9.1002    1.5084   63.0499 H       1  ZINC001341052241    0.0900
     52 H52        -8.1612    0.0562   63.4717 H       1  ZINC001341052241    0.0400
     53 H53       -11.4247   -1.3547   60.0481 H       1  ZINC001341052241    0.0700
     54 H54       -10.3852   -0.0054   59.5288 H       1  ZINC001341052241    0.0800
     55 H55        -9.8575   -1.2094   57.4322 H       1  ZINC001341052241    0.0600
     56 H56       -11.6152   -0.9915   57.6067 H       1  ZINC001341052241    0.0800
@<TRIPOS>BOND
     1     1     2    1
     2     1    25    1
     3     1    26    1
     4     1    27    1
     5     2     3    1
     6     2    28    1
     7     2    29    1
     8     3    15    1
     9     3     4    1
    10     4     5    1
    11     4    13    2
    12     5     6    1
    13     5    30    1
    14     5    31    1
    15     6     7    1
    16     7    12    1
    17     7     8    1
    18     7    32    1
    19     8     9    1
    20     8    33    1
    21     8    34    1
    22     9    10    1
    23     9    35    1
    24     9    36    1
    25    10    11    1
    26    10    37    1
    27    10    38    1
    28    11    12    1
    29    11    39    1
    30    11    40    1
    31    12    41    1
    32    12    42    1
    33    13    14    1
    34    14    15    2
    35    15    16    1
    36    16    24    1
    37    16    17    1
    38    17    18    1
    39    17    43    1
    40    17    44    1
    41    18    19    1
    42    18    45    1
    43    18    46    1
    44    19    20    1
    45    19    23    1
    46    19    47    1
    47    20    21    1
    48    20    48    1
    49    20    49    1
    50    21    22    1
    51    22    50    1
    52    22    51    1
    53    22    52    1
    54    23    24    1
    55    23    53    1
    56    23    54    1
    57    24    55    1
    58    24    56    1
@<TRIPOS>SUBSTRUCTURE
     1 ZINC001341052241        1 TEMP              0 ****  ****    0 ROOT


##########                                Name:    ZINC000652498551
##########                DOCK_Rotatable_Bonds:                   6
##########                         Heavy_Atoms:                  23
##########                    Molecular_Weight:             388.277
##########                DOCK_Rotatable_Bonds:                   6
##########                       Formal_Charge:          -0.0400001
##########                     HBond_Acceptors:                   5
##########                        HBond_Donors:                   1
##########                         Heavy_Atoms:                  23
##########                          Grid_Score:          -32.774624
##########                     Grid_vdw_energy:          -24.532335
##########                      Grid_es_energy:           -8.242290
##########           Internal_energy_repulsive:           21.812984

@<TRIPOS>MOLECULE
ZINC000652498551
 46 47 1 0 0
SMALL
USER_CHARGES


@<TRIPOS>ATOM
      1 C1        -13.4816    2.7840   62.0969 C.3     1  ZINC000652498551   -0.1300
      2 C2        -13.6191    1.7827   63.2457 C.3     1  ZINC000652498551   -0.1300
      3 C3        -13.9137    2.5346   64.5452 C.3     1  ZINC000652498551   -0.1300
      4 C4        -14.7487    0.8303   62.9492 C.2     1  ZINC000652498551    0.5000
      5 O5        -15.0264    0.5544   61.7946 O.co2   1  ZINC000652498551   -0.7000
      6 O6        -15.3848    0.3354   63.8641 O.co2   1  ZINC000652498551   -0.6700
      7 C7        -12.3152    0.9965   63.3957 C.3     1  ZINC000652498551   -0.0600
      8 H8        -12.4844    0.1295   64.0342 H       1  ZINC000652498551    0.0700
      9 C9        -11.2462    1.8944   64.0252 C.3     1  ZINC000652498551   -0.1500
     10 C10        -9.9249    1.1236   64.0989 C.3     1  ZINC000652498551   -0.1400
     11 C11        -9.5353    0.6548   62.6955 C.3     1  ZINC000652498551   -0.0100
     12 N12       -10.5847   -0.2202   62.1590 N.4     1  ZINC000652498551   -0.3800
     13 H13       -10.7285   -0.9959   62.7881 H       1  ZINC000652498551    0.4200
     14 C14       -10.1717   -0.7283   60.8440 C.3     1  ZINC000652498551    0.0000
     15 C15        -9.2695   -1.9500   61.0297 C.3     1  ZINC000652498551    0.0200
     16 O16        -8.7446   -2.3515   59.7626 O.3     1  ZINC000652498551   -0.3100
     17 C17        -9.6440   -2.6387   58.7852 C.ar    1  ZINC000652498551    0.1600
     18 C18       -10.2109   -3.9021   58.7130 C.ar    1  ZINC000652498551   -0.2300
     19 C19       -11.1266   -4.1925   57.7167 C.ar    1  ZINC000652498551    0.1500
     20 F20       -11.6794   -5.4231   57.6454 F       1  ZINC000652498551   -0.1200
     21 C21       -11.4765   -3.2219   56.7933 C.ar    1  ZINC000652498551   -0.1600
     22 C22       -10.9109   -1.9613   56.8645 C.ar    1  ZINC000652498551   -0.0300
     23 Br23      -11.3910   -0.6380   55.6019 Br      1  ZINC000652498551   -0.0100
     24 C24       -10.0004   -1.6663   57.8618 C.ar    1  ZINC000652498551   -0.1300
     25 C25       -11.8376    0.5315   62.0184 C.3     1  ZINC000652498551   -0.0200
     26 H26       -12.6646    3.4730   62.3113 H       1  ZINC000652498551    0.0400
     27 H27       -13.2718    2.2483   61.1712 H       1  ZINC000652498551    0.0500
     28 H28       -14.4106    3.3441   61.9901 H       1  ZINC000652498551    0.0600
     29 H29       -14.8426    3.0947   64.4382 H       1  ZINC000652498551    0.0700
     30 H30       -14.0118    1.8213   65.3635 H       1  ZINC000652498551    0.0400
     31 H31       -13.0967    3.2236   64.7595 H       1  ZINC000652498551    0.0500
     32 H32       -11.1139    2.7871   63.4140 H       1  ZINC000652498551    0.1300
     33 H33       -11.5571    2.1818   65.0297 H       1  ZINC000652498551    0.0800
     34 H34        -9.1455    1.7746   64.4948 H       1  ZINC000652498551    0.1000
     35 H35       -10.0439    0.2588   64.7517 H       1  ZINC000652498551    0.0700
     36 H36        -9.4163    1.5203   62.0437 H       1  ZINC000652498551    0.1300
     37 H37        -8.5949    0.1059   62.7442 H       1  ZINC000652498551    0.1100
     38 H38       -11.0541   -1.0122   60.2707 H       1  ZINC000652498551    0.1400
     39 H39        -9.6256    0.0488   60.3094 H       1  ZINC000652498551    0.1500
     40 H40        -8.4478   -1.6965   61.6995 H       1  ZINC000652498551    0.1100
     41 H41        -9.8488   -2.7677   61.4585 H       1  ZINC000652498551    0.0900
     42 H42        -9.9378   -4.6591   59.4333 H       1  ZINC000652498551    0.1500
     43 H43       -12.1914   -3.4493   56.0165 H       1  ZINC000652498551    0.1500
     44 H44        -9.5597   -0.6819   57.9167 H       1  ZINC000652498551    0.1500
     45 H45       -12.5959   -0.1085   61.5673 H       1  ZINC000652498551    0.1100
     46 H46       -11.6702    1.3997   61.3812 H       1  ZINC000652498551    0.1700
@<TRIPOS>BOND
     1     1     2    1
     2     1    26    1
     3     1    27    1
     4     1    28    1
     5     2     3    1
     6     2     4    1
     7     2     7    1
     8     3    29    1
     9     3    30    1
    10     3    31    1
    11     4     5   ar
    12     4     6   ar
    13     7     8    1
    14     7    25    1
    15     7     9    1
    16     9    10    1
    17     9    32    1
    18     9    33    1
    19    10    11    1
    20    10    34    1
    21    10    35    1
    22    11    12    1
    23    11    36    1
    24    11    37    1
    25    12    13    1
    26    12    14    1
    27    12    25    1
    28    14    15    1
    29    14    38    1
    30    14    39    1
    31    15    16    1
    32    15    40    1
    33    15    41    1
    34    16    17    1
    35    17    24   ar
    36    17    18   ar
    37    18    19   ar
    38    18    42    1
    39    19    20    1
    40    19    21   ar
    41    21    22   ar
    42    21    43    1
    43    22    23    1
    44    22    24   ar
    45    24    44    1
    46    25    45    1
    47    25    46    1
@<TRIPOS>SUBSTRUCTURE
     1 ZINC000652498551        1 TEMP              0 ****  ****    0 ROOT


##########                                Name:    ZINC001139743874
##########                DOCK_Rotatable_Bonds:                   5
##########                         Heavy_Atoms:                  28
##########                    Molecular_Weight:             382.506
##########                DOCK_Rotatable_Bonds:                   5
##########                       Formal_Charge:           0.0199992
##########                     HBond_Acceptors:                   6
##########                        HBond_Donors:                   0
##########                         Heavy_Atoms:                  28
##########                          Grid_Score:          -32.771317
##########                     Grid_vdw_energy:          -31.371477
##########                      Grid_es_energy:           -1.399839
##########           Internal_energy_repulsive:           18.056005

@<TRIPOS>MOLECULE
ZINC001139743874
 58 61 1 0 0
SMALL
USER_CHARGES


@<TRIPOS>ATOM
      1 C1        -12.8769    1.6955   50.0171 C.3     1  ZINC001139743874   -0.1800
      2 C2        -14.1215    0.8749   50.3618 C.3     1  ZINC001139743874    0.1400
      3 C3        -15.3458    1.4981   49.6885 C.3     1  ZINC001139743874   -0.1800
      4 C4        -13.9402   -0.5601   49.8631 C.3     1  ZINC001139743874   -0.1400
      5 O5        -14.3124    0.8667   51.8011 O.3     1  ZINC001139743874   -0.3600
      6 C6        -15.0987   -0.1015   52.3080 C.2     1  ZINC001139743874    0.6500
      7 O7        -16.1923   -0.3126   51.8220 O.2     1  ZINC001139743874   -0.5700
      8 N8        -14.6730   -0.8366   53.3543 N.am    1  ZINC001139743874   -0.5900
      9 C9        -13.3903   -0.6019   53.9379 C.3     1  ZINC001139743874    0.1000
     10 C10       -12.1980   -1.3430   53.2686 C.3     1  ZINC001139743874   -0.1300
     11 C11       -12.6385   -2.7858   52.8869 C.3     1  ZINC001139743874   -0.0900
     12 C12       -13.5277   -3.3880   53.9247 C.3     1  ZINC001139743874   -0.0800
     13 C13       -13.1819   -4.8195   54.3518 C.3     1  ZINC001139743874    0.0100
     14 N14       -12.4004   -4.1928   55.4425 N.3     1  ZINC001139743874   -0.4700
     15 C15       -12.6066   -4.9018   56.7123 C.3     1  ZINC001139743874    0.0600
     16 C16       -11.6820   -4.3363   57.7593 C.ar    1  ZINC001139743874   -0.1200
     17 C17       -10.5428   -5.0438   58.1382 C.ar    1  ZINC001139743874    0.1500
     18 N18        -9.7166   -4.5818   59.0454 N.ar    1  ZINC001139743874   -0.4600
     19 C19        -9.9320   -3.4095   59.6468 C.ar    1  ZINC001139743874    0.0800
     20 C20        -9.0418   -2.9154   60.6213 C.ar    1  ZINC001139743874   -0.0400
     21 C21        -9.3198   -1.7098   61.1978 C.ar    1  ZINC001139743874   -0.1600
     22 C22       -10.4594   -1.0022   60.8190 C.ar    1  ZINC001139743874    0.1300
     23 N23       -11.2857   -1.4643   59.9123 N.ar    1  ZINC001139743874   -0.4700
     24 C24       -11.0702   -2.6367   59.3106 C.ar    1  ZINC001139743874    0.0800
     25 C25       -11.9574   -3.1282   58.3326 C.ar    1  ZINC001139743874   -0.0400
     26 C26       -13.2394   -2.9744   55.3726 C.3     1  ZINC001139743874    0.0000
     27 C27       -14.9924   -3.2076   53.5141 C.3     1  ZINC001139743874   -0.1300
     28 C28       -15.5363   -1.9132   53.9349 C.3     1  ZINC001139743874    0.1400
     29 H29       -13.0060    2.7179   50.3723 H       1  ZINC001139743874    0.0900
     30 H30       -12.0047    1.2516   50.4968 H       1  ZINC001139743874    0.0600
     31 H31       -12.7336    1.7017   48.9366 H       1  ZINC001139743874    0.0700
     32 H32       -15.2025    1.5042   48.6079 H       1  ZINC001139743874    0.0700
     33 H33       -16.2324    0.9134   49.9339 H       1  ZINC001139743874    0.0600
     34 H34       -15.4749    2.5205   50.0437 H       1  ZINC001139743874    0.0900
     35 H35       -13.0680   -1.0041   50.3429 H       1  ZINC001139743874    0.0700
     36 H36       -14.8268   -1.1447   50.1087 H       1  ZINC001139743874    0.0700
     37 H37       -13.7969   -0.5540   48.7826 H       1  ZINC001139743874    0.0800
     38 H38       -13.1900    0.4689   53.9015 H       1  ZINC001139743874    0.0700
     39 H39       -13.4326   -0.9004   54.9854 H       1  ZINC001139743874    0.0900
     40 H40       -11.8937   -0.8057   52.3703 H       1  ZINC001139743874    0.0700
     41 H41       -11.3615   -1.3904   53.9659 H       1  ZINC001139743874    0.0800
     42 H42       -13.1723   -2.7544   51.9370 H       1  ZINC001139743874    0.0600
     43 H43       -11.7518   -3.4096   52.7738 H       1  ZINC001139743874    0.0700
     44 H44       -14.0402   -5.3942   54.6998 H       1  ZINC001139743874    0.0700
     45 H45       -12.5718   -5.3593   53.6276 H       1  ZINC001139743874    0.0900
     46 H46       -13.6404   -4.7766   57.0347 H       1  ZINC001139743874    0.0600
     47 H47       -12.3948   -5.9622   56.5750 H       1  ZINC001139743874    0.0900
     48 H48       -10.3354   -5.9962   57.6732 H       1  ZINC001139743874    0.1700
     49 H49        -8.1631   -3.4759   60.9046 H       1  ZINC001139743874    0.1500
     50 H50        -8.6569   -1.3042   61.9478 H       1  ZINC001139743874    0.1500
     51 H51       -10.6670   -0.0498   61.2842 H       1  ZINC001139743874    0.1700
     52 H52       -12.8341   -2.5659   58.0469 H       1  ZINC001139743874    0.1400
     53 H53       -12.6749   -2.0461   55.4607 H       1  ZINC001139743874    0.1000
     54 H54       -14.1146   -3.0053   56.0214 H       1  ZINC001139743874    0.0700
     55 H55       -15.0672   -3.2879   52.4297 H       1  ZINC001139743874    0.0700
     56 H56       -15.5860   -4.0020   53.9666 H       1  ZINC001139743874    0.0800
     57 H57       -15.5301   -1.8484   55.0230 H       1  ZINC001139743874    0.0800
     58 H58       -16.5562   -1.8060   53.5659 H       1  ZINC001139743874    0.1000
@<TRIPOS>BOND
     1     1     2    1
     2     1    29    1
     3     1    30    1
     4     1    31    1
     5     2     3    1
     6     2     4    1
     7     2     5    1
     8     3    32    1
     9     3    33    1
    10     3    34    1
    11     4    35    1
    12     4    36    1
    13     4    37    1
    14     5     6    1
    15     6     7    2
    16     6     8   am
    17     8    28    1
    18     8     9    1
    19     9    10    1
    20     9    38    1
    21     9    39    1
    22    10    11    1
    23    10    40    1
    24    10    41    1
    25    11    12    1
    26    11    42    1
    27    11    43    1
    28    12    26    1
    29    12    13    1
    30    12    27    1
    31    13    14    1
    32    13    44    1
    33    13    45    1
    34    14    15    1
    35    14    26    1
    36    15    16    1
    37    15    46    1
    38    15    47    1
    39    16    25   ar
    40    16    17   ar
    41    17    18   ar
    42    17    48    1
    43    18    19   ar
    44    19    24   ar
    45    19    20   ar
    46    20    21   ar
    47    20    49    1
    48    21    22   ar
    49    21    50    1
    50    22    23   ar
    51    22    51    1
    52    23    24   ar
    53    24    25   ar
    54    25    52    1
    55    26    53    1
    56    26    54    1
    57    27    28    1
    58    27    55    1
    59    27    56    1
    60    28    57    1
    61    28    58    1
@<TRIPOS>SUBSTRUCTURE
     1 ZINC001139743874        1 TEMP              0 ****  ****    0 ROOT


##########                                Name:    ZINC000817655807
##########                DOCK_Rotatable_Bonds:                   3
##########                         Heavy_Atoms:                  24
##########                    Molecular_Weight:             352.774
##########                DOCK_Rotatable_Bonds:                   3
##########                       Formal_Charge:         3.35276e-07
##########                     HBond_Acceptors:                   8
##########                        HBond_Donors:                   0
##########                         Heavy_Atoms:                  24
##########                          Grid_Score:          -32.768143
##########                     Grid_vdw_energy:          -31.909708
##########                      Grid_es_energy:           -0.858435
##########           Internal_energy_repulsive:            2.916996

@<TRIPOS>MOLECULE
ZINC000817655807
 41 44 1 0 0
SMALL
USER_CHARGES


@<TRIPOS>ATOM
      1 C1         -8.4494    1.0335   54.0607 C.3     1  ZINC000817655807    0.1100
      2 N2         -9.1860   -0.1155   53.5281 N.am    1  ZINC000817655807   -0.6400
      3 C3        -10.3494   -0.7583   54.1650 C.3     1  ZINC000817655807    0.1000
      4 C4        -10.7075   -1.8833   53.1897 C.3     1  ZINC000817655807    0.0500
      5 C5        -10.8858   -3.2693   53.8097 C.3     1  ZINC000817655807    0.1200
      6 N6        -12.3247   -2.9376   53.8691 N.am    1  ZINC000817655807   -0.6500
      7 C7        -13.3592   -3.3592   54.6232 C.2     1  ZINC000817655807    0.5500
      8 O8        -14.4668   -2.8982   54.4452 O.2     1  ZINC000817655807   -0.5100
      9 C9        -13.1397   -4.4034   55.6873 C.3     1  ZINC000817655807   -0.0900
     10 C10       -12.4960   -3.7658   56.8916 C.ar    1  ZINC000817655807   -0.0600
     11 C11       -13.0921   -2.6752   57.4960 C.ar    1  ZINC000817655807   -0.0900
     12 C12       -12.5029   -2.0861   58.6003 C.ar    1  ZINC000817655807   -0.0300
     13 Cl13      -13.2542   -0.7160   59.3567 Cl      1  ZINC000817655807   -0.0500
     14 C14       -11.3121   -2.5897   59.1040 C.ar    1  ZINC000817655807    0.0600
     15 O15       -10.7397   -1.9948   60.1864 O.3     1  ZINC000817655807   -0.2900
     16 C16        -9.7466   -2.7521   60.8867 C.3     1  ZINC000817655807    0.0200
     17 C17        -8.7894   -3.3614   59.8533 C.3     1  ZINC000817655807    0.0200
     18 O18        -9.5500   -4.2018   58.9786 O.3     1  ZINC000817655807   -0.3000
     19 C19       -10.7154   -3.6887   58.4978 C.ar    1  ZINC000817655807    0.0600
     20 C20       -11.3134   -4.2765   57.3931 C.ar    1  ZINC000817655807   -0.0900
     21 C21       -12.1763   -1.9586   52.7721 C.3     1  ZINC000817655807    0.1100
     22 O22        -9.7402   -1.7775   52.1197 O.3     1  ZINC000817655807   -0.3000
     23 C23        -8.9156   -0.7512   52.3779 C.2     1  ZINC000817655807    0.6400
     24 O24        -8.0032   -0.4317   51.6417 O.2     1  ZINC000817655807   -0.5100
     25 H25        -7.6421    1.2962   53.3769 H       1  ZINC000817655807    0.0900
     26 H26        -9.1261    1.8815   54.1666 H       1  ZINC000817655807    0.0700
     27 H27        -8.0320    0.7778   55.0346 H       1  ZINC000817655807    0.0700
     28 H28       -10.0782   -1.1657   55.1391 H       1  ZINC000817655807    0.1000
     29 H29       -11.1751   -0.0530   54.2584 H       1  ZINC000817655807    0.1000
     30 H30       -10.6507   -4.0889   53.1306 H       1  ZINC000817655807    0.1100
     31 H31       -10.4181   -3.3773   54.7882 H       1  ZINC000817655807    0.1000
     32 H32       -14.0977   -4.8369   55.9742 H       1  ZINC000817655807    0.1100
     33 H33       -12.4883   -5.1864   55.2991 H       1  ZINC000817655807    0.1100
     34 H34       -14.0191   -2.2821   57.1055 H       1  ZINC000817655807    0.1400
     35 H35        -9.1926   -2.0980   61.5599 H       1  ZINC000817655807    0.1300
     36 H36       -10.2257   -3.5475   61.4576 H       1  ZINC000817655807    0.0800
     37 H37        -8.3147   -2.5663   59.2782 H       1  ZINC000817655807    0.0800
     38 H38        -8.0281   -3.9532   60.3614 H       1  ZINC000817655807    0.1300
     39 H39       -10.8524   -5.1319   56.9217 H       1  ZINC000817655807    0.1400
     40 H40       -12.7274   -1.0317   52.9316 H       1  ZINC000817655807    0.1000
     41 H41       -12.3308   -2.3824   51.7799 H       1  ZINC000817655807    0.1100
@<TRIPOS>BOND
     1     1     2    1
     2     1    25    1
     3     1    26    1
     4     1    27    1
     5     2    23   am
     6     2     3    1
     7     3     4    1
     8     3    28    1
     9     3    29    1
    10     4    21    1
    11     4     5    1
    12     4    22    1
    13     5     6    1
    14     5    30    1
    15     5    31    1
    16     6     7   am
    17     6    21    1
    18     7     8    2
    19     7     9    1
    20     9    10    1
    21     9    32    1
    22     9    33    1
    23    10    20   ar
    24    10    11   ar
    25    11    12   ar
    26    11    34    1
    27    12    13    1
    28    12    14   ar
    29    14    19   ar
    30    14    15    1
    31    15    16    1
    32    16    17    1
    33    16    35    1
    34    16    36    1
    35    17    18    1
    36    17    37    1
    37    17    38    1
    38    18    19    1
    39    19    20   ar
    40    20    39    1
    41    21    40    1
    42    21    41    1
    43    22    23    1
    44    23    24    2
@<TRIPOS>SUBSTRUCTURE
     1 ZINC000817655807        1 TEMP              0 ****  ****    0 ROOT


##########                                Name:    ZINC000846412382
##########                DOCK_Rotatable_Bonds:                   6
##########                         Heavy_Atoms:                  26
##########                    Molecular_Weight:             370.475
##########                DOCK_Rotatable_Bonds:                   6
##########                       Formal_Charge:               -0.03
##########                     HBond_Acceptors:                   7
##########                        HBond_Donors:                   4
##########                         Heavy_Atoms:                  26
##########                          Grid_Score:          -32.764568
##########                     Grid_vdw_energy:          -33.184120
##########                      Grid_es_energy:            0.419551
##########           Internal_energy_repulsive:           23.408697

@<TRIPOS>MOLECULE
ZINC000846412382
 48 50 1 0 0
SMALL
USER_CHARGES


@<TRIPOS>ATOM
      1 C1        -12.8002   -2.0976   58.9873 C.3     1  ZINC000846412382   -0.1400
      2 C2        -11.3481   -2.0876   59.3903 C.2     1  ZINC000846412382    0.0300
      3 C3        -10.3976   -2.6736   58.6514 C.2     1  ZINC000846412382   -0.2700
      4 C4        -10.6396   -3.3819   57.3885 C.2     1  ZINC000846412382    0.6000
      5 O5        -10.2303   -4.5181   57.2401 O.2     1  ZINC000846412382   -0.5200
      6 N6        -11.3152   -2.7737   56.3935 N.am    1  ZINC000846412382   -0.7100
      7 C7        -11.5553   -3.4800   55.1326 C.3     1  ZINC000846412382    0.1200
      8 H8        -10.6525   -4.0152   54.8383 H       1  ZINC000846412382    0.1000
      9 C9        -12.7017   -4.4764   55.3165 C.3     1  ZINC000846412382   -0.1700
     10 C10       -11.9268   -2.4701   54.0451 C.3     1  ZINC000846412382    0.1700
     11 C11       -12.9780   -1.4997   54.5878 C.3     1  ZINC000846412382   -0.1400
     12 O12       -12.4572   -3.1625   52.9131 O.3     1  ZINC000846412382   -0.5500
     13 C13       -10.6983   -1.7007   53.6331 C.ar    1  ZINC000846412382   -0.1200
     14 C14       -10.2958   -0.5984   54.3636 C.ar    1  ZINC000846412382   -0.1100
     15 C15        -9.1688    0.1074   53.9857 C.ar    1  ZINC000846412382   -0.1200
     16 C16        -8.4440   -0.2896   52.8776 C.ar    1  ZINC000846412382   -0.1200
     17 C17        -8.8461   -1.3925   52.1475 C.ar    1  ZINC000846412382   -0.1200
     18 C18        -9.9706   -2.1007   52.5279 C.ar    1  ZINC000846412382   -0.1000
     19 S19        -8.8222   -2.4777   59.4006 S.3     1  ZINC000846412382    0.2000
     20 C20        -9.5169   -1.5761   60.7409 C.ar    1  ZINC000846412382    0.1400
     21 N21        -8.9525   -1.0251   61.8215 N.ar    1  ZINC000846412382   -0.5300
     22 C22        -9.6753   -0.3849   62.7119 C.ar    1  ZINC000846412382    0.3900
     23 C23        -8.9885    0.2174   63.9104 C.3     1  ZINC000846412382   -0.0900
     24 N24       -10.9835   -0.2508   62.5917 N.ar    1  ZINC000846412382   -0.5800
     25 C25       -11.6352   -0.7605   61.5576 C.ar    1  ZINC000846412382    0.5100
     26 N26       -13.0029   -0.6109   61.4480 N.pl3   1  ZINC000846412382   -0.8300
     27 C27       -10.9020   -1.4605   60.5582 C.ar    1  ZINC000846412382   -0.2500
     28 H28       -13.0343   -1.1789   58.4495 H       1  ZINC000846412382    0.0800
     29 H29       -12.9925   -2.9551   58.3426 H       1  ZINC000846412382    0.1100
     30 H30       -13.4241   -2.1659   59.8785 H       1  ZINC000846412382    0.0700
     31 H31       -11.6426   -1.8683   56.5122 H       1  ZINC000846412382    0.4000
     32 H32       -13.6046   -3.9412   55.6107 H       1  ZINC000846412382    0.0600
     33 H33       -12.8803   -5.0019   54.3783 H       1  ZINC000846412382    0.0800
     34 H34       -12.4370   -5.1959   56.0913 H       1  ZINC000846412382    0.0700
     35 H35       -12.5735   -0.9715   55.4512 H       1  ZINC000846412382    0.0700
     36 H36       -13.2428   -0.7802   53.8130 H       1  ZINC000846412382    0.0700
     37 H37       -13.8666   -2.0562   54.8858 H       1  ZINC000846412382    0.0700
     38 H38       -13.2805   -3.6370   53.0927 H       1  ZINC000846412382    0.3800
     39 H39       -10.8621   -0.2883   55.2294 H       1  ZINC000846412382    0.1300
     40 H40        -8.8548    0.9690   54.5560 H       1  ZINC000846412382    0.1200
     41 H41        -7.5640    0.2622   52.5819 H       1  ZINC000846412382    0.1200
     42 H42        -8.2800   -1.7024   51.2815 H       1  ZINC000846412382    0.1200
     43 H43       -10.2846   -2.9624   51.9575 H       1  ZINC000846412382    0.1300
     44 H44        -8.6857    1.2390   63.6806 H       1  ZINC000846412382    0.0900
     45 H45        -9.6747    0.2236   64.7573 H       1  ZINC000846412382    0.0900
     46 H46        -8.1082   -0.3749   64.1605 H       1  ZINC000846412382    0.0900
     47 H47       -13.5359   -0.4300   62.2380 H       1  ZINC000846412382    0.4100
     48 H48       -13.4310   -0.6866   60.5809 H       1  ZINC000846412382    0.4200
@<TRIPOS>BOND
     1     1     2    1
     2     1    28    1
     3     1    29    1
     4     1    30    1
     5     2    27    1
     6     2     3    2
     7     3     4    1
     8     3    19    1
     9     4     5    2
    10     4     6   am
    11     6     7    1
    12     6    31    1
    13     7     8    1
    14     7     9    1
    15     7    10    1
    16     9    32    1
    17     9    33    1
    18     9    34    1
    19    10    11    1
    20    10    12    1
    21    10    13    1
    22    11    35    1
    23    11    36    1
    24    11    37    1
    25    12    38    1
    26    13    18   ar
    27    13    14   ar
    28    14    15   ar
    29    14    39    1
    30    15    16   ar
    31    15    40    1
    32    16    17   ar
    33    16    41    1
    34    17    18   ar
    35    17    42    1
    36    18    43    1
    37    19    20    1
    38    20    27   ar
    39    20    21   ar
    40    21    22   ar
    41    22    23    1
    42    22    24   ar
    43    23    44    1
    44    23    45    1
    45    23    46    1
    46    24    25   ar
    47    25    26    1
    48    25    27   ar
    49    26    47    1
    50    26    48    1
@<TRIPOS>SUBSTRUCTURE
     1 ZINC000846412382        1 TEMP              0 ****  ****    0 ROOT


##########                                Name:    ZINC001327099466
##########                DOCK_Rotatable_Bonds:                   7
##########                         Heavy_Atoms:                  27
##########                    Molecular_Weight:             374.483
##########                DOCK_Rotatable_Bonds:                   7
##########                       Formal_Charge:           0.0199998
##########                     HBond_Acceptors:                   7
##########                        HBond_Donors:                   1
##########                         Heavy_Atoms:                  27
##########                          Grid_Score:          -32.750637
##########                     Grid_vdw_energy:          -30.527433
##########                      Grid_es_energy:           -2.223205
##########           Internal_energy_repulsive:           13.767546

@<TRIPOS>MOLECULE
ZINC001327099466
 57 60 1 0 0
SMALL
USER_CHARGES


@<TRIPOS>ATOM
      1 O1         -8.1375    3.9143   55.6239 O.2     1  ZINC001327099466   -0.4800
      2 C2         -7.2876    3.1236   55.2690 C.2     1  ZINC001327099466    0.5300
      3 N3         -7.1816    1.9278   55.8818 N.am    1  ZINC001327099466   -0.6000
      4 C4         -8.0475    1.6002   56.9309 C.2     1  ZINC001327099466    0.2900
      5 N5         -8.6796    0.4596   57.0817 N.2     1  ZINC001327099466   -0.3100
      6 N6         -9.4418    0.5345   58.2545 N.pl3   1  ZINC001327099466   -0.3500
      7 C7        -10.2989   -0.5247   58.7928 C.3     1  ZINC001327099466    0.1700
      8 C8         -9.4406   -1.5393   59.5510 C.3     1  ZINC001327099466   -0.1300
      9 C9        -10.3358   -2.6454   60.1132 C.3     1  ZINC001327099466   -0.1200
     10 C10       -11.3644   -2.0340   61.0666 C.3     1  ZINC001327099466   -0.1300
     11 C11       -12.2225   -1.0193   60.3085 C.3     1  ZINC001327099466   -0.1200
     12 C12       -11.3274    0.0868   59.7463 C.3     1  ZINC001327099466   -0.1300
     13 C13        -9.2480    1.7529   58.8023 C.2     1  ZINC001327099466    0.0700
     14 C14        -8.3878    2.4320   58.0105 C.2     1  ZINC001327099466   -0.2700
     15 C15        -6.3634    3.4733   54.1492 C.2     1  ZINC001327099466    0.5100
     16 O16        -5.3174    4.0434   54.3812 O.2     1  ZINC001327099466   -0.5100
     17 N17        -6.6909    3.1558   52.8809 N.am    1  ZINC001327099466   -0.5700
     18 C18        -7.9537    2.4657   52.5843 C.3     1  ZINC001327099466    0.0400
     19 C19        -7.6475    1.2073   51.7660 C.3     1  ZINC001327099466   -0.1300
     20 C20        -6.8364    1.5941   50.5271 C.3     1  ZINC001327099466   -0.1200
     21 C21        -5.5103    2.2236   50.9596 C.3     1  ZINC001327099466    0.0800
     22 H22        -4.9552    1.5157   51.5752 H       1  ZINC001327099466    0.0700
     23 O23        -4.7402    2.5557   49.8025 O.3     1  ZINC001327099466   -0.3500
     24 C24        -3.3816    2.8957   50.0866 C.3     1  ZINC001327099466    0.0600
     25 C25        -2.3634    1.8981   49.5093 C.3     1  ZINC001327099466   -0.1600
     26 C26        -2.3667    2.7547   48.2321 C.3     1  ZINC001327099466   -0.1400
     27 C27        -2.7920    3.9362   49.1198 C.3     1  ZINC001327099466   -0.1400
     28 C28        -5.7948    3.4985   51.7682 C.3     1  ZINC001327099466    0.0900
     29 H29        -6.5050    1.2944   55.5956 H       1  ZINC001327099466    0.4300
     30 H30       -10.8153   -1.0256   57.9739 H       1  ZINC001327099466    0.1000
     31 H31        -8.7079   -1.9750   58.8717 H       1  ZINC001327099466    0.0700
     32 H32        -8.9243   -1.0384   60.3699 H       1  ZINC001327099466    0.0700
     33 H33       -10.8522   -3.1462   59.2944 H       1  ZINC001327099466    0.0700
     34 H34        -9.7243   -3.3682   60.6534 H       1  ZINC001327099466    0.0700
     35 H35       -12.0021   -2.8219   61.4672 H       1  ZINC001327099466    0.0700
     36 H36       -10.8479   -1.5330   61.8856 H       1  ZINC001327099466    0.0700
     37 H37       -12.7390   -1.5202   59.4896 H       1  ZINC001327099466    0.0700
     38 H38       -12.9554   -0.5836   60.9878 H       1  ZINC001327099466    0.0700
     39 H39       -10.8110    0.5877   60.5652 H       1  ZINC001327099466    0.0700
     40 H40       -11.9389    0.8097   59.2061 H       1  ZINC001327099466    0.0700
     41 H41        -9.6973    2.1188   59.7137 H       1  ZINC001327099466    0.1800
     42 H42        -8.0303    3.4377   58.1756 H       1  ZINC001327099466    0.1700
     43 H43        -8.4444    2.1851   53.5162 H       1  ZINC001327099466    0.1600
     44 H44        -8.6045    3.1254   52.0104 H       1  ZINC001327099466    0.0700
     45 H45        -7.0723    0.5090   52.3740 H       1  ZINC001327099466    0.0700
     46 H46        -8.5816    0.7380   51.4574 H       1  ZINC001327099466    0.0900
     47 H47        -6.6384    0.7038   49.9303 H       1  ZINC001327099466    0.0800
     48 H48        -7.4020    2.3114   49.9322 H       1  ZINC001327099466    0.0800
     49 H49        -3.2153    3.1325   51.1374 H       1  ZINC001327099466    0.0700
     50 H50        -1.4073    1.8982   50.0326 H       1  ZINC001327099466    0.0900
     51 H51        -2.7677    0.8964   49.3641 H       1  ZINC001327099466    0.0700
     52 H52        -1.3798    2.8770   47.7858 H       1  ZINC001327099466    0.0700
     53 H53        -3.1255    2.4569   47.5085 H       1  ZINC001327099466    0.0800
     54 H54        -3.5423    4.5797   48.6602 H       1  ZINC001327099466    0.0800
     55 H55        -1.9531    4.4934   49.5366 H       1  ZINC001327099466    0.0900
     56 H56        -6.2686    4.2405   51.1256 H       1  ZINC001327099466    0.0900
     57 H57        -4.8602    3.8972   52.1627 H       1  ZINC001327099466    0.1000
@<TRIPOS>BOND
     1     1     2    2
     2     2     3   am
     3     2    15    1
     4     3     4    1
     5     3    29    1
     6     4    14    1
     7     4     5    2
     8     5     6    1
     9     6     7    1
    10     6    13    1
    11     7    12    1
    12     7     8    1
    13     7    30    1
    14     8     9    1
    15     8    31    1
    16     8    32    1
    17     9    10    1
    18     9    33    1
    19     9    34    1
    20    10    11    1
    21    10    35    1
    22    10    36    1
    23    11    12    1
    24    11    37    1
    25    11    38    1
    26    12    39    1
    27    12    40    1
    28    13    14    2
    29    13    41    1
    30    14    42    1
    31    15    16    2
    32    15    17   am
    33    17    28    1
    34    17    18    1
    35    18    19    1
    36    18    43    1
    37    18    44    1
    38    19    20    1
    39    19    45    1
    40    19    46    1
    41    20    21    1
    42    20    47    1
    43    20    48    1
    44    21    22    1
    45    21    23    1
    46    21    28    1
    47    23    24    1
    48    24    27    1
    49    24    25    1
    50    24    49    1
    51    25    26    1
    52    25    50    1
    53    25    51    1
    54    26    27    1
    55    26    52    1
    56    26    53    1
    57    27    54    1
    58    27    55    1
    59    28    56    1
    60    28    57    1
@<TRIPOS>SUBSTRUCTURE
     1 ZINC001327099466        1 TEMP              0 ****  ****    0 ROOT


##########                                Name:    ZINC000269287897
##########                DOCK_Rotatable_Bonds:                   8
##########                         Heavy_Atoms:                  23
##########                    Molecular_Weight:             385.301
##########                DOCK_Rotatable_Bonds:                   8
##########                       Formal_Charge:           0.0300002
##########                     HBond_Acceptors:                   5
##########                        HBond_Donors:                   1
##########                         Heavy_Atoms:                  23
##########                          Grid_Score:          -32.745815
##########                     Grid_vdw_energy:          -31.526571
##########                      Grid_es_energy:           -1.219245
##########           Internal_energy_repulsive:            7.411789

@<TRIPOS>MOLECULE
ZINC000269287897
 48 49 1 0 0
SMALL
USER_CHARGES


@<TRIPOS>ATOM
      1 C1         -9.0645   -0.0413   52.9356 C.3     1  ZINC000269287897    0.0300
      2 O2        -10.3223   -0.5547   52.4925 O.3     1  ZINC000269287897   -0.3800
      3 C3        -10.3836   -1.9815   52.4454 C.3     1  ZINC000269287897    0.0600
      4 C4        -11.7896   -2.4181   52.0285 C.3     1  ZINC000269287897    0.0600
      5 O5        -12.7160   -2.0967   53.0679 O.3     1  ZINC000269287897   -0.3800
      6 C6        -13.2151   -3.2344   53.7739 C.3     1  ZINC000269287897    0.0700
      7 C7        -13.6308   -2.8166   55.1858 C.3     1  ZINC000269287897   -0.1000
      8 H8        -14.1954   -1.8844   55.1648 H       1  ZINC000269287897    0.1000
      9 C9        -14.4406   -3.9416   55.8830 C.3     1  ZINC000269287897   -0.1200
     10 C10       -14.1754   -3.6809   57.3808 C.3     1  ZINC000269287897    0.1000
     11 N11       -12.9288   -2.9073   57.4752 N.am    1  ZINC000269287897   -0.6300
     12 C12       -12.3644   -2.4631   58.6156 C.2     1  ZINC000269287897    0.7300
     13 O13       -12.8918   -2.6966   59.6860 O.2     1  ZINC000269287897   -0.5600
     14 N14       -11.2155   -1.7601   58.5696 N.am    1  ZINC000269287897   -0.6900
     15 C15       -10.6293   -1.2988   59.7542 C.ar    1  ZINC000269287897    0.1800
     16 C16       -11.0787   -0.1239   60.3410 C.ar    1  ZINC000269287897   -0.0600
     17 C17       -12.1989    0.6571   59.7035 C.3     1  ZINC000269287897   -0.1000
     18 C18       -10.4986    0.3287   61.5104 C.ar    1  ZINC000269287897   -0.0900
     19 C19        -9.4713   -0.3872   62.0965 C.ar    1  ZINC000269287897   -0.0800
     20 C20        -8.8410    0.1098   63.3720 C.3     1  ZINC000269287897   -0.1100
     21 C21        -9.0209   -1.5585   61.5151 C.ar    1  ZINC000269287897   -0.0900
     22 C22        -9.6000   -2.0191   60.3483 C.ar    1  ZINC000269287897   -0.1000
     23 Br23       -8.9844   -3.6210   59.5541 Br      1  ZINC000269287897   -0.0500
     24 C24       -12.3975   -2.6980   56.1155 C.3     1  ZINC000269287897    0.1400
     25 H25        -8.8575   -0.4055   53.9418 H       1  ZINC000269287897    0.0400
     26 H26        -8.2774   -0.3748   52.2593 H       1  ZINC000269287897    0.0400
     27 H27        -9.0992    1.0481   52.9435 H       1  ZINC000269287897    0.0900
     28 H28        -9.6584   -2.3526   51.7213 H       1  ZINC000269287897    0.0600
     29 H29       -10.1541   -2.3878   53.4304 H       1  ZINC000269287897    0.0600
     30 H30       -12.0751   -1.8985   51.1138 H       1  ZINC000269287897    0.0700
     31 H31       -11.7989   -3.4939   51.8533 H       1  ZINC000269287897    0.0600
     32 H32       -14.0784   -3.6396   53.2459 H       1  ZINC000269287897    0.0600
     33 H33       -12.4365   -3.9948   53.8345 H       1  ZINC000269287897    0.0500
     34 H34       -15.5030   -3.8485   55.6575 H       1  ZINC000269287897    0.0900
     35 H35       -14.0678   -4.9232   55.5904 H       1  ZINC000269287897    0.0800
     36 H36       -14.9993   -3.1101   57.8093 H       1  ZINC000269287897    0.0700
     37 H37       -14.0645   -4.6285   57.9080 H       1  ZINC000269287897    0.0700
     38 H38       -10.7947   -1.5738   57.7157 H       1  ZINC000269287897    0.4100
     39 H39       -13.1397    0.4107   60.1957 H       1  ZINC000269287897    0.0900
     40 H40       -12.0029    1.7242   59.8076 H       1  ZINC000269287897    0.0600
     41 H41       -12.2642    0.4011   58.6460 H       1  ZINC000269287897    0.0600
     42 H42       -10.8479    1.2429   61.9671 H       1  ZINC000269287897    0.1300
     43 H43        -9.3743   -0.3060   64.2268 H       1  ZINC000269287897    0.0700
     44 H44        -7.7975   -0.2033   63.4076 H       1  ZINC000269287897    0.0700
     45 H45        -8.8952    1.1979   63.4041 H       1  ZINC000269287897    0.0700
     46 H46        -8.2182   -2.1154   61.9754 H       1  ZINC000269287897    0.1400
     47 H47       -11.6644   -3.4671   55.8721 H       1  ZINC000269287897    0.0700
     48 H48       -11.9512   -1.7071   56.0309 H       1  ZINC000269287897    0.0900
@<TRIPOS>BOND
     1     1     2    1
     2     1    25    1
     3     1    26    1
     4     1    27    1
     5     2     3    1
     6     3     4    1
     7     3    28    1
     8     3    29    1
     9     4     5    1
    10     4    30    1
    11     4    31    1
    12     5     6    1
    13     6     7    1
    14     6    32    1
    15     6    33    1
    16     7     8    1
    17     7    24    1
    18     7     9    1
    19     9    10    1
    20     9    34    1
    21     9    35    1
    22    10    11    1
    23    10    36    1
    24    10    37    1
    25    11    12   am
    26    11    24    1
    27    12    13    2
    28    12    14   am
    29    14    15    1
    30    14    38    1
    31    15    22   ar
    32    15    16   ar
    33    16    17    1
    34    16    18   ar
    35    17    39    1
    36    17    40    1
    37    17    41    1
    38    18    19   ar
    39    18    42    1
    40    19    20    1
    41    19    21   ar
    42    20    43    1
    43    20    44    1
    44    20    45    1
    45    21    22   ar
    46    21    46    1
    47    22    23    1
    48    24    47    1
    49    24    48    1
@<TRIPOS>SUBSTRUCTURE
     1 ZINC000269287897        1 TEMP              0 ****  ****    0 ROOT


##########                                Name:    ZINC001074839487
##########                DOCK_Rotatable_Bonds:                   7
##########                         Heavy_Atoms:                  25
##########                    Molecular_Weight:             344.454
##########                DOCK_Rotatable_Bonds:                   7
##########                       Formal_Charge:          -0.0500005
##########                     HBond_Acceptors:                   5
##########                        HBond_Donors:                   1
##########                         Heavy_Atoms:                  25
##########                          Grid_Score:          -32.738945
##########                     Grid_vdw_energy:          -32.772057
##########                      Grid_es_energy:            0.033110
##########           Internal_energy_repulsive:           91.460152

@<TRIPOS>MOLECULE
ZINC001074839487
 53 55 1 0 0
SMALL
USER_CHARGES


@<TRIPOS>ATOM
      1 C1        -16.0207   -2.2554   48.8605 C.3     1  ZINC001074839487   -0.1500
      2 C2        -15.7840   -1.7871   50.2977 C.3     1  ZINC001074839487   -0.1300
      3 C3        -14.8358   -0.5864   50.2933 C.3     1  ZINC001074839487   -0.1100
      4 C4        -14.1926   -0.4392   51.6737 C.3     1  ZINC001074839487   -0.1400
      5 C5        -13.1197   -1.4840   51.8419 C.2     1  ZINC001074839487    0.5100
      6 O6        -12.5337   -1.9134   50.8707 O.2     1  ZINC001074839487   -0.5400
      7 N7        -12.8114   -1.9414   53.0717 N.am    1  ZINC001074839487   -0.7300
      8 C8        -11.7697   -2.9584   53.2350 C.3     1  ZINC001074839487    0.1400
      9 H9        -11.2164   -3.0647   52.3019 H       1  ZINC001074839487    0.0900
     10 C10       -10.8117   -2.5326   54.3500 C.3     1  ZINC001074839487   -0.1500
     11 C11       -11.5984   -2.3509   55.6519 C.3     1  ZINC001074839487    0.0700
     12 N12       -12.3397   -3.5879   55.9330 N.am    1  ZINC001074839487   -0.6000
     13 C13       -12.2131   -4.2091   57.1223 C.2     1  ZINC001074839487    0.5600
     14 O14       -12.8320   -5.2318   57.3428 O.2     1  ZINC001074839487   -0.5200
     15 C15       -11.3217   -3.6466   58.1590 C.ar    1  ZINC001074839487   -0.1300
     16 C16       -10.0414   -4.1710   58.3419 C.ar    1  ZINC001074839487   -0.1000
     17 C17        -9.2132   -3.6421   59.3113 C.ar    1  ZINC001074839487   -0.1000
     18 C18        -9.6497   -2.5956   60.0996 C.ar    1  ZINC001074839487   -0.1100
     19 C19        -8.9957   -1.8177   61.2183 C.3     1  ZINC001074839487    0.0900
     20 O20       -10.0651   -1.1559   61.9181 O.3     1  ZINC001074839487   -0.3600
     21 C21       -11.0888   -0.9529   60.9269 C.3     1  ZINC001074839487    0.0900
     22 C22       -10.9220   -2.0697   59.9227 C.ar    1  ZINC001074839487   -0.1400
     23 C23       -11.7554   -2.5845   58.9556 C.ar    1  ZINC001074839487   -0.0400
     24 C24       -13.2212   -4.1351   54.8927 C.3     1  ZINC001074839487    0.1500
     25 H25       -14.0533   -3.4519   54.7224 H       1  ZINC001074839487    0.0700
     26 C26       -13.7556   -5.4979   55.3380 C.3     1  ZINC001074839487   -0.1400
     27 C27       -12.4164   -4.2968   53.5993 C.3     1  ZINC001074839487   -0.1400
     28 H28       -16.4641   -1.4446   48.2826 H       1  ZINC001074839487    0.0500
     29 H29       -16.6961   -3.1109   48.8637 H       1  ZINC001074839487    0.0500
     30 H30       -15.0705   -2.5444   48.4113 H       1  ZINC001074839487    0.0500
     31 H31       -16.7341   -1.4982   50.7469 H       1  ZINC001074839487    0.0600
     32 H32       -15.3406   -2.5980   50.8757 H       1  ZINC001074839487    0.0600
     33 H33       -14.0585   -0.7400   49.5447 H       1  ZINC001074839487    0.0700
     34 H34       -15.3959    0.3180   50.0552 H       1  ZINC001074839487    0.0700
     35 H35       -13.7509    0.5531   51.7648 H       1  ZINC001074839487    0.0900
     36 H36       -14.9521   -0.5711   52.4443 H       1  ZINC001074839487    0.0900
     37 H37       -13.2793   -1.5972   53.8485 H       1  ZINC001074839487    0.4000
     38 H38       -10.0508   -3.3005   54.4889 H       1  ZINC001074839487    0.0800
     39 H39       -10.3340   -1.5910   54.0792 H       1  ZINC001074839487    0.0800
     40 H40       -10.9084   -2.1445   56.4700 H       1  ZINC001074839487    0.1200
     41 H41       -12.2982   -1.5222   55.5434 H       1  ZINC001074839487    0.0700
     42 H42        -9.6989   -4.9892   57.7256 H       1  ZINC001074839487    0.1500
     43 H43        -8.2221   -4.0470   59.4533 H       1  ZINC001074839487    0.1400
     44 H44        -8.4704   -2.4963   61.8904 H       1  ZINC001074839487    0.1000
     45 H45        -8.3029   -1.0823   60.8092 H       1  ZINC001074839487    0.0800
     46 H46       -12.0747   -1.0072   61.3886 H       1  ZINC001074839487    0.1000
     47 H47       -10.9540    0.0130   60.4402 H       1  ZINC001074839487    0.0800
     48 H48       -12.7433   -2.1711   58.8159 H       1  ZINC001074839487    0.1400
     49 H49       -14.4148   -5.3669   56.1962 H       1  ZINC001074839487    0.0800
     50 H50       -14.3114   -5.9553   54.5194 H       1  ZINC001074839487    0.0500
     51 H51       -12.9215   -6.1422   55.6156 H       1  ZINC001074839487    0.0700
     52 H52       -13.0807   -4.6109   52.7943 H       1  ZINC001074839487    0.0900
     53 H53       -11.6403   -5.0480   53.7453 H       1  ZINC001074839487    0.0900
@<TRIPOS>BOND
     1     1     2    1
     2     1    28    1
     3     1    29    1
     4     1    30    1
     5     2     3    1
     6     2    31    1
     7     2    32    1
     8     3     4    1
     9     3    33    1
    10     3    34    1
    11     4     5    1
    12     4    35    1
    13     4    36    1
    14     5     6    2
    15     5     7   am
    16     7     8    1
    17     7    37    1
    18     8     9    1
    19     8    27    1
    20     8    10    1
    21    10    11    1
    22    10    38    1
    23    10    39    1
    24    11    12    1
    25    11    40    1
    26    11    41    1
    27    12    13   am
    28    12    24    1
    29    13    14    2
    30    13    15    1
    31    15    23   ar
    32    15    16   ar
    33    16    17   ar
    34    16    42    1
    35    17    18   ar
    36    17    43    1
    37    18    22   ar
    38    18    19    1
    39    19    20    1
    40    19    44    1
    41    19    45    1
    42    20    21    1
    43    21    22    1
    44    21    46    1
    45    21    47    1
    46    22    23   ar
    47    23    48    1
    48    24    25    1
    49    24    26    1
    50    24    27    1
    51    26    49    1
    52    26    50    1
    53    26    51    1
    54    27    52    1
    55    27    53    1
@<TRIPOS>SUBSTRUCTURE
     1 ZINC001074839487        1 TEMP              0 ****  ****    0 ROOT


##########                                Name:    ZINC000281257088
##########                DOCK_Rotatable_Bonds:                   8
##########                         Heavy_Atoms:                  27
##########                    Molecular_Weight:             395.541
##########                DOCK_Rotatable_Bonds:                   8
##########                       Formal_Charge:          -0.0200005
##########                     HBond_Acceptors:                   7
##########                        HBond_Donors:                   1
##########                         Heavy_Atoms:                  27
##########                          Grid_Score:          -32.727375
##########                     Grid_vdw_energy:          -31.667570
##########                      Grid_es_energy:           -1.059804
##########           Internal_energy_repulsive:           28.225588

@<TRIPOS>MOLECULE
ZINC000281257088
 57 58 1 0 0
SMALL
USER_CHARGES


@<TRIPOS>ATOM
      1 C1        -14.1204   -0.5008   61.7577 C.3     1  ZINC000281257088   -0.0700
      2 C2        -12.6195   -0.6229   61.8149 C.2     1  ZINC000281257088    0.1000
      3 N3        -11.8263    0.0363   62.6199 N.2     1  ZINC000281257088   -0.3000
      4 N4        -10.5088   -0.3621   62.3591 N.pl3   1  ZINC000281257088   -0.3700
      5 C5         -9.3086    0.1319   63.0386 C.3     1  ZINC000281257088    0.1500
      6 C6         -9.7143    0.8874   64.3057 C.3     1  ZINC000281257088   -0.6400
      7 S7         -8.5620    0.4818   65.6467 S.o2    1  ZINC000281257088    2.4300
      8 C8         -7.0797    1.4072   65.1598 C.3     1  ZINC000281257088   -0.6500
      9 O9         -9.0631    1.0335   66.8566 O.2     1  ZINC000281257088   -0.9300
     10 O10        -8.2685   -0.9073   65.5867 O.2     1  ZINC000281257088   -0.9300
     11 C11       -10.5406   -1.2811   61.3715 C.2     1  ZINC000281257088    0.0900
     12 C12        -9.3489   -1.9818   60.7713 C.3     1  ZINC000281257088   -0.1000
     13 C13       -11.8344   -1.4649   61.0206 C.2     1  ZINC000281257088   -0.2300
     14 C14       -12.3393   -2.4044   59.9559 C.3     1  ZINC000281257088    0.1400
     15 N15       -12.7561   -1.6314   58.7784 N.3     1  ZINC000281257088   -0.6700
     16 C16       -12.7159   -2.4581   57.5647 C.3     1  ZINC000281257088    0.1400
     17 H17       -12.1092   -3.3447   57.7489 H       1  ZINC000281257088    0.0500
     18 C18       -12.1135   -1.6631   56.4350 C.ar    1  ZINC000281257088   -0.0800
     19 C19       -12.3898   -0.3138   56.3159 C.ar    1  ZINC000281257088   -0.0600
     20 C20       -11.8379    0.4163   55.2803 C.ar    1  ZINC000281257088   -0.1600
     21 C21       -11.0076   -0.2040   54.3623 C.ar    1  ZINC000281257088    0.1000
     22 F22       -10.4671    0.5088   53.3499 F       1  ZINC000281257088   -0.1400
     23 C23       -10.7311   -1.5553   54.4830 C.ar    1  ZINC000281257088   -0.1600
     24 C24       -11.2803   -2.2823   55.5221 C.ar    1  ZINC000281257088   -0.0900
     25 C25       -14.1372   -2.8817   57.1889 C.3     1  ZINC000281257088   -0.0600
     26 C26       -14.5449   -4.0970   58.0241 C.3     1  ZINC000281257088   -0.1400
     27 C27       -15.1030   -1.7271   57.4633 C.3     1  ZINC000281257088   -0.1400
     28 C28       -14.1852   -3.2446   55.7033 C.3     1  ZINC000281257088   -0.1500
     29 H29       -14.5697   -1.2159   62.4468 H       1  ZINC000281257088    0.0800
     30 H30       -14.4138    0.5102   62.0407 H       1  ZINC000281257088    0.0700
     31 H31       -14.4636   -0.7082   60.7441 H       1  ZINC000281257088    0.0800
     32 H32        -8.6702   -0.7100   63.3064 H       1  ZINC000281257088    0.1100
     33 H33        -8.7649    0.8031   62.3737 H       1  ZINC000281257088    0.1100
     34 H34        -9.6856    1.9600   64.1140 H       1  ZINC000281257088    0.1400
     35 H35       -10.7244    0.5968   64.5943 H       1  ZINC000281257088    0.1400
     36 H36        -7.3163    2.4698   65.1058 H       1  ZINC000281257088    0.1300
     37 H37        -6.2929    1.2469   65.8970 H       1  ZINC000281257088    0.1300
     38 H38        -6.7393    1.0608   64.1839 H       1  ZINC000281257088    0.1300
     39 H39        -9.1492   -2.8987   61.3259 H       1  ZINC000281257088    0.0800
     40 H40        -9.5574   -2.2255   59.7295 H       1  ZINC000281257088    0.0900
     41 H41        -8.4783   -1.3281   60.8244 H       1  ZINC000281257088    0.0700
     42 H42       -11.5446   -3.0953   59.6743 H       1  ZINC000281257088    0.0800
     43 H43       -13.1899   -2.9667   60.3411 H       1  ZINC000281257088    0.0300
     44 H44       -13.6728   -1.2322   58.9137 H       1  ZINC000281257088    0.3400
     45 H45       -13.0376    0.1699   57.0321 H       1  ZINC000281257088    0.1400
     46 H46       -12.0546    1.4703   55.1871 H       1  ZINC000281257088    0.1300
     47 H47       -10.0838   -2.0403   53.7673 H       1  ZINC000281257088    0.1300
     48 H48       -11.0645   -3.3364   55.6166 H       1  ZINC000281257088    0.1300
     49 H49       -14.5107   -3.8385   59.0825 H       1  ZINC000281257088    0.0600
     50 H50       -15.5574   -4.3989   57.7564 H       1  ZINC000281257088    0.0500
     51 H51       -13.8568   -4.9195   57.8286 H       1  ZINC000281257088    0.0600
     52 H52       -14.8125   -0.8613   56.8683 H       1  ZINC000281257088    0.0500
     53 H53       -16.1155   -2.0289   57.1955 H       1  ZINC000281257088    0.0600
     54 H54       -15.0687   -1.4687   58.5217 H       1  ZINC000281257088    0.0600
     55 H55       -13.5568   -4.1164   55.5218 H       1  ZINC000281257088    0.0500
     56 H56       -15.2124   -3.4712   55.4177 H       1  ZINC000281257088    0.0600
     57 H57       -13.8206   -2.4045   55.1122 H       1  ZINC000281257088    0.0600
@<TRIPOS>BOND
     1     1     2    1
     2     1    29    1
     3     1    30    1
     4     1    31    1
     5     2    13    1
     6     2     3    2
     7     3     4    1
     8     4     5    1
     9     4    11    1
    10     5     6    1
    11     5    32    1
    12     5    33    1
    13     6     7    1
    14     6    34    1
    15     6    35    1
    16     7     8    1
    17     7     9    2
    18     7    10    2
    19     8    36    1
    20     8    37    1
    21     8    38    1
    22    11    12    1
    23    11    13    2
    24    12    39    1
    25    12    40    1
    26    12    41    1
    27    13    14    1
    28    14    15    1
    29    14    42    1
    30    14    43    1
    31    15    16    1
    32    15    44    1
    33    16    17    1
    34    16    18    1
    35    16    25    1
    36    18    24   ar
    37    18    19   ar
    38    19    20   ar
    39    19    45    1
    40    20    21   ar
    41    20    46    1
    42    21    22    1
    43    21    23   ar
    44    23    24   ar
    45    23    47    1
    46    24    48    1
    47    25    26    1
    48    25    27    1
    49    25    28    1
    50    26    49    1
    51    26    50    1
    52    26    51    1
    53    27    52    1
    54    27    53    1
    55    27    54    1
    56    28    55    1
    57    28    56    1
    58    28    57    1
@<TRIPOS>SUBSTRUCTURE
     1 ZINC000281257088        1 TEMP              0 ****  ****    0 ROOT


##########                                Name:    ZINC000194290865
##########                DOCK_Rotatable_Bonds:                   7
##########                         Heavy_Atoms:                  28
##########                    Molecular_Weight:             387.479
##########                DOCK_Rotatable_Bonds:                   7
##########                       Formal_Charge:          -0.0400003
##########                     HBond_Acceptors:                   7
##########                        HBond_Donors:                   0
##########                         Heavy_Atoms:                  28
##########                          Grid_Score:          -32.719791
##########                     Grid_vdw_energy:          -31.553476
##########                      Grid_es_energy:           -1.166316
##########           Internal_energy_repulsive:           37.183819

@<TRIPOS>MOLECULE
ZINC000194290865
 57 59 1 0 0
SMALL
USER_CHARGES


@<TRIPOS>ATOM
      1 C1         -7.3910   -0.8354   51.6483 C.3     1  ZINC000194290865   -0.1500
      2 C2         -8.2527    0.1364   52.4569 C.3     1  ZINC000194290865    0.0600
      3 O3         -9.3654   -0.5825   53.0511 O.3     1  ZINC000194290865   -0.3600
      4 C4        -10.2205    0.1302   53.8013 C.2     1  ZINC000194290865    0.4700
      5 O5        -10.0787    1.3253   53.9084 O.2     1  ZINC000194290865   -0.4900
      6 C6        -11.3572   -0.5602   54.5099 C.3     1  ZINC000194290865   -0.0600
      7 C7        -12.5248    0.4082   54.7089 C.3     1  ZINC000194290865   -0.0700
      8 C8        -13.0983    0.8026   53.3463 C.3     1  ZINC000194290865   -0.1700
      9 C9        -13.6133   -0.2698   55.5434 C.3     1  ZINC000194290865   -0.1600
     10 C10       -11.8157   -1.8004   53.7084 C.3     1  ZINC000194290865   -0.1200
     11 C11       -11.0636   -2.9601   54.4085 C.3     1  ZINC000194290865    0.0900
     12 N12       -11.0972   -2.5729   55.8378 N.am    1  ZINC000194290865   -0.6100
     13 C13       -11.2833   -3.3874   56.8953 C.2     1  ZINC000194290865    0.5800
     14 O14       -11.4471   -4.5792   56.7230 O.2     1  ZINC000194290865   -0.5000
     15 C15       -11.2883   -2.8303   58.2665 C.ar    1  ZINC000194290865    0.0100
     16 C16       -12.4921   -2.6530   58.9753 C.ar    1  ZINC000194290865   -0.2200
     17 C17       -12.4523   -2.1205   60.2755 C.ar    1  ZINC000194290865    0.3000
     18 N18       -11.2919   -1.7915   60.8218 N.ar    1  ZINC000194290865   -0.4700
     19 C19       -10.1514   -1.9459   60.1838 C.ar    1  ZINC000194290865    0.2100
     20 C20        -8.8679   -1.5503   60.8673 C.3     1  ZINC000194290865   -0.1100
     21 C21       -10.1004   -2.4689   58.9018 C.ar    1  ZINC000194290865   -0.1800
     22 O22       -13.7265   -2.0598   60.7122 O.3     1  ZINC000194290865   -0.0800
     23 N23       -14.5917   -2.5480   59.7071 N.2     1  ZINC000194290865   -0.2600
     24 C24       -13.8994   -2.9065   58.6691 C.2     1  ZINC000194290865    0.1600
     25 C25       -14.4452   -3.4780   57.3858 C.3     1  ZINC000194290865   -0.0400
     26 C26       -14.5585   -4.9985   57.5121 C.3     1  ZINC000194290865   -0.1500
     27 C27       -15.8283   -2.8844   57.1108 C.3     1  ZINC000194290865   -0.1400
     28 C28       -10.8841   -1.1138   55.8669 C.3     1  ZINC000194290865    0.1200
     29 H29        -7.0093   -1.6163   52.3061 H       1  ZINC000194290865    0.0700
     30 H30        -7.9943   -1.2868   50.8605 H       1  ZINC000194290865    0.0700
     31 H31        -6.5557   -0.2957   51.2022 H       1  ZINC000194290865    0.0800
     32 H32        -7.6494    0.5878   53.2446 H       1  ZINC000194290865    0.0700
     33 H33        -8.6344    0.9173   51.7991 H       1  ZINC000194290865    0.0700
     34 H34       -12.1727    1.3002   55.2269 H       1  ZINC000194290865    0.0900
     35 H35       -12.3228    1.2856   52.7518 H       1  ZINC000194290865    0.0500
     36 H36       -13.4504   -0.0896   52.8284 H       1  ZINC000194290865    0.0800
     37 H37       -13.9301    1.4926   53.4881 H       1  ZINC000194290865    0.0600
     38 H38       -13.2048   -0.5508   56.5141 H       1  ZINC000194290865    0.0500
     39 H39       -14.4451    0.4201   55.6852 H       1  ZINC000194290865    0.0600
     40 H40       -13.9654   -1.1620   55.0255 H       1  ZINC000194290865    0.0800
     41 H41       -12.8943   -1.9353   53.7895 H       1  ZINC000194290865    0.0900
     42 H42       -11.5132   -1.7187   52.6645 H       1  ZINC000194290865    0.0900
     43 H43       -11.5843   -3.9052   54.2537 H       1  ZINC000194290865    0.0900
     44 H44       -10.0357   -3.0232   54.0511 H       1  ZINC000194290865    0.0900
     45 H45        -8.4713   -2.4035   61.4175 H       1  ZINC000194290865    0.0900
     46 H46        -8.1418   -1.2306   60.1199 H       1  ZINC000194290865    0.0900
     47 H47        -9.0624   -0.7306   61.5590 H       1  ZINC000194290865    0.0900
     48 H48        -9.1529   -2.5871   58.3971 H       1  ZINC000194290865    0.1600
     49 H49       -13.7737   -3.2308   56.5635 H       1  ZINC000194290865    0.1100
     50 H50       -15.2300   -5.2457   58.3344 H       1  ZINC000194290865    0.0700
     51 H51       -14.9533   -5.4118   56.5840 H       1  ZINC000194290865    0.0700
     52 H52       -13.5732   -5.4213   57.7081 H       1  ZINC000194290865    0.0600
     53 H53       -15.7474   -1.8012   57.0208 H       1  ZINC000194290865    0.0600
     54 H54       -16.2229   -3.2977   56.1826 H       1  ZINC000194290865    0.0700
     55 H55       -16.4997   -3.1316   57.9331 H       1  ZINC000194290865    0.0600
     56 H56        -9.8255   -0.8959   56.0081 H       1  ZINC000194290865    0.0800
     57 H57       -11.4679   -0.6695   56.6731 H       1  ZINC000194290865    0.1000
@<TRIPOS>BOND
     1     1     2    1
     2     1    29    1
     3     1    30    1
     4     1    31    1
     5     2     3    1
     6     2    32    1
     7     2    33    1
     8     3     4    1
     9     4     5    2
    10     4     6    1
    11     6    28    1
    12     6     7    1
    13     6    10    1
    14     7     8    1
    15     7     9    1
    16     7    34    1
    17     8    35    1
    18     8    36    1
    19     8    37    1
    20     9    38    1
    21     9    39    1
    22     9    40    1
    23    10    11    1
    24    10    41    1
    25    10    42    1
    26    11    12    1
    27    11    43    1
    28    11    44    1
    29    12    13   am
    30    12    28    1
    31    13    14    2
    32    13    15    1
    33    15    21   ar
    34    15    16   ar
    35    16    24    1
    36    16    17   ar
    37    17    18   ar
    38    17    22    1
    39    18    19   ar
    40    19    20    1
    41    19    21   ar
    42    20    45    1
    43    20    46    1
    44    20    47    1
    45    21    48    1
    46    22    23    1
    47    23    24    2
    48    24    25    1
    49    25    26    1
    50    25    27    1
    51    25    49    1
    52    26    50    1
    53    26    51    1
    54    26    52    1
    55    27    53    1
    56    27    54    1
    57    27    55    1
    58    28    56    1
    59    28    57    1
@<TRIPOS>SUBSTRUCTURE
     1 ZINC000194290865        1 TEMP              0 ****  ****    0 ROOT


##########                                Name:    ZINC000506388363
##########                DOCK_Rotatable_Bonds:                   5
##########                         Heavy_Atoms:                  29
##########                    Molecular_Weight:             416.858
##########                DOCK_Rotatable_Bonds:                   5
##########                       Formal_Charge:         7.07805e-07
##########                     HBond_Acceptors:                   8
##########                        HBond_Donors:                   1
##########                         Heavy_Atoms:                  29
##########                          Grid_Score:          -32.706955
##########                     Grid_vdw_energy:          -31.660366
##########                      Grid_es_energy:           -1.046589
##########           Internal_energy_repulsive:           15.933919

@<TRIPOS>MOLECULE
ZINC000506388363
 48 51 1 0 0
SMALL
USER_CHARGES


@<TRIPOS>ATOM
      1 O1        -14.8316    0.3789   52.8534 O.2     1  ZINC000506388363   -0.5300
      2 C2        -14.1243   -0.3877   52.2292 C.2     1  ZINC000506388363    0.5600
      3 C3        -14.5155   -0.8126   50.8682 C.ar    1  ZINC000506388363   -0.1200
      4 C4        -13.8518   -0.2955   49.7548 C.ar    1  ZINC000506388363   -0.0900
      5 C5        -14.2209   -0.6960   48.4870 C.ar    1  ZINC000506388363   -0.1100
      6 C6        -15.2470   -1.6079   48.3177 C.ar    1  ZINC000506388363   -0.0900
      7 C7        -15.9102   -2.1252   49.4178 C.ar    1  ZINC000506388363   -0.0400
      8 Cl8       -17.1965   -3.2696   49.1950 Cl      1  ZINC000506388363   -0.0600
      9 C9        -15.5465   -1.7368   50.6918 C.ar    1  ZINC000506388363   -0.0600
     10 N10       -12.9807   -0.8461   52.7757 N.am    1  ZINC000506388363   -0.6100
     11 C11       -12.5760   -0.4409   54.1304 C.3     1  ZINC000506388363    0.1000
     12 C12       -12.2521   -1.7015   54.9392 C.3     1  ZINC000506388363    0.0400
     13 N13       -11.2629   -2.5064   54.2101 N.3     1  ZINC000506388363   -0.5300
     14 C14       -10.7971   -3.6348   55.0271 C.3     1  ZINC000506388363    0.1200
     15 C15       -11.9644   -4.2333   55.7690 C.2     1  ZINC000506388363   -0.2100
     16 C16       -12.9251   -5.0208   55.2381 C.2     1  ZINC000506388363    0.0600
     17 N17       -13.7870   -5.3493   56.2243 N.pl3   1  ZINC000506388363   -0.4700
     18 N18       -13.3459   -4.7447   57.4083 N.2     1  ZINC000506388363   -0.2700
     19 C19       -12.2444   -4.0760   57.1404 C.2     1  ZINC000506388363    0.1300
     20 C20       -11.4446   -3.2867   58.1098 C.ar    1  ZINC000506388363   -0.0700
     21 C21       -11.8750   -2.0203   58.5062 C.ar    1  ZINC000506388363    0.1500
     22 F22       -13.0221   -1.5086   58.0088 F       1  ZINC000506388363   -0.1200
     23 C23       -11.1251   -1.2902   59.4096 C.ar    1  ZINC000506388363   -0.1600
     24 C24        -9.9509   -1.8126   59.9201 C.ar    1  ZINC000506388363   -0.0500
     25 C25        -9.5186   -3.0674   59.5312 C.ar    1  ZINC000506388363   -0.1600
     26 C26       -10.2621   -3.8103   58.6329 C.ar    1  ZINC000506388363    0.1600
     27 F27        -9.8386   -5.0359   58.2539 F       1  ZINC000506388363   -0.1200
     28 C28       -11.7989   -2.9731   52.9244 C.3     1  ZINC000506388363    0.0400
     29 C29       -12.1075   -1.7695   52.0355 C.3     1  ZINC000506388363    0.1200
     30 H30       -13.0507    0.4172   49.8853 H       1  ZINC000506388363    0.1400
     31 H31       -13.7076   -0.2963   47.6250 H       1  ZINC000506388363    0.1400
     32 H32       -15.5325   -1.9174   47.3231 H       1  ZINC000506388363    0.1400
     33 H33       -16.0638   -2.1409   51.5493 H       1  ZINC000506388363    0.1400
     34 H34       -11.6925    0.1950   54.0738 H       1  ZINC000506388363    0.0800
     35 H35       -13.3911    0.1018   54.6091 H       1  ZINC000506388363    0.1000
     36 H36       -11.8452   -1.4166   55.9094 H       1  ZINC000506388363    0.0900
     37 H37       -13.1613   -2.2852   55.0827 H       1  ZINC000506388363    0.0400
     38 H38       -10.3506   -4.3910   54.3815 H       1  ZINC000506388363    0.1000
     39 H39       -10.0538   -3.2830   55.7425 H       1  ZINC000506388363    0.0400
     40 H40       -12.9921   -5.3326   54.2062 H       1  ZINC000506388363    0.1800
     41 H41       -14.5750   -5.9069   56.1292 H       1  ZINC000506388363    0.4400
     42 H42       -11.4570   -0.3094   59.7171 H       1  ZINC000506388363    0.1500
     43 H43        -9.3686   -1.2381   60.6253 H       1  ZINC000506388363    0.1500
     44 H44        -8.6006   -3.4696   59.9333 H       1  ZINC000506388363    0.1500
     45 H45       -11.0634   -3.6105   52.4336 H       1  ZINC000506388363    0.0900
     46 H46       -12.7145   -3.5391   53.0961 H       1  ZINC000506388363    0.0400
     47 H47       -12.6106   -2.1037   51.1282 H       1  ZINC000506388363    0.1000
     48 H48       -11.1801   -1.2584   51.7763 H       1  ZINC000506388363    0.0800
@<TRIPOS>BOND
     1     1     2    2
     2     2     3    1
     3     2    10   am
     4     3     9   ar
     5     3     4   ar
     6     4     5   ar
     7     4    30    1
     8     5     6   ar
     9     5    31    1
    10     6     7   ar
    11     6    32    1
    12     7     8    1
    13     7     9   ar
    14     9    33    1
    15    10    29    1
    16    10    11    1
    17    11    12    1
    18    11    34    1
    19    11    35    1
    20    12    13    1
    21    12    36    1
    22    12    37    1
    23    13    14    1
    24    13    28    1
    25    14    15    1
    26    14    38    1
    27    14    39    1
    28    15    19    1
    29    15    16    2
    30    16    17    1
    31    16    40    1
    32    17    18    1
    33    17    41    1
    34    18    19    2
    35    19    20    1
    36    20    26   ar
    37    20    21   ar
    38    21    22    1
    39    21    23   ar
    40    23    24   ar
    41    23    42    1
    42    24    25   ar
    43    24    43    1
    44    25    26   ar
    45    25    44    1
    46    26    27    1
    47    28    29    1
    48    28    45    1
    49    28    46    1
    50    29    47    1
    51    29    48    1
@<TRIPOS>SUBSTRUCTURE
     1 ZINC000506388363        1 TEMP              0 ****  ****    0 ROOT


##########                                Name:    ZINC000123469372
##########                DOCK_Rotatable_Bonds:                   7
##########                         Heavy_Atoms:                  25
##########                    Molecular_Weight:             341.382
##########                DOCK_Rotatable_Bonds:                   7
##########                       Formal_Charge:          -0.0300001
##########                     HBond_Acceptors:                   5
##########                        HBond_Donors:                   2
##########                         Heavy_Atoms:                  25
##########                          Grid_Score:          -32.702816
##########                     Grid_vdw_energy:          -32.521797
##########                      Grid_es_energy:           -0.181018
##########           Internal_energy_repulsive:            8.229485

@<TRIPOS>MOLECULE
ZINC000123469372
 45 47 1 0 0
SMALL
USER_CHARGES


@<TRIPOS>ATOM
      1 C1        -14.2573   -4.8725   57.0311 C.3     1  ZINC000123469372   -0.1700
      2 C2        -12.9094   -4.2302   56.6967 C.3     1  ZINC000123469372    0.1500
      3 H3        -12.2072   -5.0021   56.3820 H       1  ZINC000123469372    0.0900
      4 C4        -13.0941   -3.2169   55.5654 C.3     1  ZINC000123469372   -0.1600
      5 C5        -13.0107   -3.9363   54.2177 C.3     1  ZINC000123469372    0.1500
      6 H6        -13.5950   -4.8554   54.2597 H       1  ZINC000123469372    0.1100
      7 O7        -11.6470   -4.2516   53.9296 O.3     1  ZINC000123469372   -0.5500
      8 C8        -13.5587   -3.0416   53.1358 C.ar    1  ZINC000123469372   -0.1200
      9 C9        -12.7002   -2.2652   52.3803 C.ar    1  ZINC000123469372   -0.1100
     10 C10       -13.2030   -1.4445   51.3879 C.ar    1  ZINC000123469372   -0.1200
     11 C11       -14.5642   -1.4006   51.1510 C.ar    1  ZINC000123469372   -0.1200
     12 C12       -15.4226   -2.1778   51.9059 C.ar    1  ZINC000123469372   -0.1200
     13 C13       -14.9195   -3.0017   52.8954 C.ar    1  ZINC000123469372   -0.1100
     14 N14       -12.3860   -3.5479   57.8828 N.am    1  ZINC000123469372   -0.7100
     15 C15       -11.0798   -3.6516   58.1982 C.2     1  ZINC000123469372    0.5700
     16 O16       -10.3352   -4.3132   57.4985 O.2     1  ZINC000123469372   -0.5400
     17 C17       -10.5568   -2.9691   59.3812 C.2     1  ZINC000123469372   -0.2200
     18 C18       -11.2641   -1.9659   59.9570 C.2     1  ZINC000123469372    0.0000
     19 C19       -10.6818   -1.3005   61.1329 C.ar    1  ZINC000123469372   -0.1200
     20 C20       -11.4563   -0.5070   61.9779 C.ar    1  ZINC000123469372   -0.0900
     21 C21       -10.8670    0.0994   63.0708 C.ar    1  ZINC000123469372    0.0700
     22 F22       -11.6107    0.8696   63.8947 F       1  ZINC000123469372   -0.1400
     23 C23        -9.5153   -0.0795   63.3262 C.ar    1  ZINC000123469372   -0.1100
     24 C24        -8.7394   -0.8646   62.4931 C.ar    1  ZINC000123469372   -0.1200
     25 C25        -9.3123   -1.4795   61.3949 C.ar    1  ZINC000123469372    0.1300
     26 O26        -8.5778   -2.2548   60.5591 O.3     1  ZINC000123469372   -0.3000
     27 C27        -9.2325   -3.3819   59.9691 C.3     1  ZINC000123469372    0.1100
     28 H28       -14.6468   -5.3801   56.1486 H       1  ZINC000123469372    0.0700
     29 H29       -14.1257   -5.5944   57.8371 H       1  ZINC000123469372    0.0600
     30 H30       -14.9595   -4.1006   57.3459 H       1  ZINC000123469372    0.0600
     31 H31       -14.0685   -2.7380   55.6619 H       1  ZINC000123469372    0.0900
     32 H32       -12.3107   -2.4612   55.6230 H       1  ZINC000123469372    0.0800
     33 H33       -11.0857   -3.4769   53.7879 H       1  ZINC000123469372    0.3700
     34 H34       -11.6368   -2.2994   52.5654 H       1  ZINC000123469372    0.1200
     35 H35       -12.5323   -0.8373   50.7981 H       1  ZINC000123469372    0.1200
     36 H36       -14.9570   -0.7589   50.3762 H       1  ZINC000123469372    0.1200
     37 H37       -16.4861   -2.1433   51.7210 H       1  ZINC000123469372    0.1200
     38 H38       -15.5901   -3.6089   53.4853 H       1  ZINC000123469372    0.1200
     39 H39       -12.9794   -3.0217   58.4411 H       1  ZINC000123469372    0.4000
     40 H40       -12.2243   -1.6646   59.5648 H       1  ZINC000123469372    0.1500
     41 H41       -12.5087   -0.3670   61.7797 H       1  ZINC000123469372    0.1500
     42 H42        -9.0648    0.3990   64.1832 H       1  ZINC000123469372    0.1500
     43 H43        -7.6877   -0.9973   62.6999 H       1  ZINC000123469372    0.1500
     44 H44        -9.3913   -4.1457   60.7303 H       1  ZINC000123469372    0.0800
     45 H45        -8.6034   -3.7910   59.1784 H       1  ZINC000123469372    0.1100
@<TRIPOS>BOND
     1     1     2    1
     2     1    28    1
     3     1    29    1
     4     1    30    1
     5     2     3    1
     6     2     4    1
     7     2    14    1
     8     4     5    1
     9     4    31    1
    10     4    32    1
    11     5     6    1
    12     5     7    1
    13     5     8    1
    14     7    33    1
    15     8    13   ar
    16     8     9   ar
    17     9    10   ar
    18     9    34    1
    19    10    11   ar
    20    10    35    1
    21    11    12   ar
    22    11    36    1
    23    12    13   ar
    24    12    37    1
    25    13    38    1
    26    14    15   am
    27    14    39    1
    28    15    16    2
    29    15    17    1
    30    17    27    1
    31    17    18    2
    32    18    19    1
    33    18    40    1
    34    19    25   ar
    35    19    20   ar
    36    20    21   ar
    37    20    41    1
    38    21    22    1
    39    21    23   ar
    40    23    24   ar
    41    23    42    1
    42    24    25   ar
    43    24    43    1
    44    25    26    1
    45    26    27    1
    46    27    44    1
    47    27    45    1
@<TRIPOS>SUBSTRUCTURE
     1 ZINC000123469372        1 TEMP              0 ****  ****    0 ROOT


##########                                Name:    ZINC001009116151
##########                DOCK_Rotatable_Bonds:                   6
##########                         Heavy_Atoms:                  25
##########                    Molecular_Weight:             342.481
##########                DOCK_Rotatable_Bonds:                   6
##########                       Formal_Charge:           0.0600006
##########                     HBond_Acceptors:                   4
##########                        HBond_Donors:                   1
##########                         Heavy_Atoms:                  25
##########                          Grid_Score:          -32.701408
##########                     Grid_vdw_energy:          -31.964325
##########                      Grid_es_energy:           -0.737085
##########           Internal_energy_repulsive:            9.582644

@<TRIPOS>MOLECULE
ZINC001009116151
 55 59 1 0 0
SMALL
USER_CHARGES


@<TRIPOS>ATOM
      1 O1        -10.0570   -4.3505   56.8345 O.2     1  ZINC001009116151   -0.5400
      2 C2        -10.5472   -3.2624   57.0509 C.2     1  ZINC001009116151    0.5200
      3 N3        -11.1708   -2.5951   56.0598 N.am    1  ZINC001009116151   -0.7300
      4 C4        -11.2512   -3.1812   54.7196 C.3     1  ZINC001009116151    0.1500
      5 C5        -12.3236   -2.4523   53.9076 C.3     1  ZINC001009116151   -0.1200
      6 H6        -12.6181   -1.4748   54.2894 H       1  ZINC001009116151    0.1100
      7 C7        -13.4062   -3.3052   53.2431 C.3     1  ZINC001009116151   -0.1700
      8 H8        -13.4255   -4.3808   53.4179 H       1  ZINC001009116151    0.1200
      9 C9        -14.7326   -2.6202   52.8492 C.3     1  ZINC001009116151    0.1300
     10 N10       -14.4860   -2.0806   51.4917 N.am    1  ZINC001009116151   -0.6200
     11 C11       -15.3321   -2.0629   50.4429 C.2     1  ZINC001009116151    0.5500
     12 O12       -16.4469   -2.5272   50.5550 O.2     1  ZINC001009116151   -0.5300
     13 C13       -14.8930   -1.4660   49.1306 C.3     1  ZINC001009116151   -0.1200
     14 C14       -15.7407   -2.0150   47.9597 C.3     1  ZINC001009116151   -0.0900
     15 C15       -16.8580   -1.0118   47.7909 C.2     1  ZINC001009116151   -0.1800
     16 C16       -16.5772    0.1104   48.3954 C.2     1  ZINC001009116151   -0.1500
     17 C17       -15.2258    0.0428   49.0680 C.3     1  ZINC001009116151   -0.0900
     18 C18       -13.0983   -1.5650   51.5488 C.3     1  ZINC001009116151    0.1200
     19 C19       -12.3081   -2.6408   52.3893 C.3     1  ZINC001009116151   -0.1600
     20 H20       -11.5193   -3.1974   51.8834 H       1  ZINC001009116151    0.1300
     21 C21       -10.4645   -2.6594   58.4295 C.3     1  ZINC001009116151   -0.0700
     22 C22        -9.6819   -1.3463   58.3658 C.3     1  ZINC001009116151   -0.1100
     23 C23        -9.5980   -0.7341   59.7654 C.3     1  ZINC001009116151   -0.1100
     24 C24       -10.3247   -1.6392   60.7623 C.3     1  ZINC001009116151   -0.0900
     25 C25       -11.7923   -1.7748   60.3521 C.3     1  ZINC001009116151   -0.1100
     26 C26       -11.8763   -2.3869   58.9525 C.3     1  ZINC001009116151   -0.0900
     27 C27        -9.6675   -3.0208   60.7697 C.3     1  ZINC001009116151   -0.1100
     28 C28        -9.7514   -3.6330   59.3700 C.3     1  ZINC001009116151   -0.1000
     29 H29       -11.5663   -1.7266   56.2338 H       1  ZINC001009116151    0.4000
     30 H30       -10.2872   -3.0812   54.2208 H       1  ZINC001009116151    0.0800
     31 H31       -11.5109   -4.2368   54.7997 H       1  ZINC001009116151    0.0700
     32 H32       -15.5442   -3.3475   52.8275 H       1  ZINC001009116151    0.0900
     33 H33       -14.9638   -1.8120   53.5433 H       1  ZINC001009116151    0.0800
     34 H34       -13.8305   -1.6397   48.9603 H       1  ZINC001009116151    0.1100
     35 H35       -15.1414   -2.0722   47.0511 H       1  ZINC001009116151    0.0900
     36 H36       -16.1455   -2.9954   48.2110 H       1  ZINC001009116151    0.0800
     37 H37       -17.7691   -1.1987   47.2420 H       1  ZINC001009116151    0.1300
     38 H38       -17.2254    0.9741   48.4122 H       1  ZINC001009116151    0.1300
     39 H39       -15.2804    0.4616   50.0729 H       1  ZINC001009116151    0.0900
     40 H40       -14.4797    0.5720   48.4753 H       1  ZINC001009116151    0.0900
     41 H41       -12.6769   -1.4962   50.5459 H       1  ZINC001009116151    0.0900
     42 H42       -13.0742   -0.5921   52.0397 H       1  ZINC001009116151    0.0800
     43 H43        -8.6762   -1.5405   57.9933 H       1  ZINC001009116151    0.0700
     44 H44       -10.1900   -0.6528   57.6957 H       1  ZINC001009116151    0.0700
     45 H45        -8.5523   -0.6376   60.0577 H       1  ZINC001009116151    0.0700
     46 H46       -10.0662    0.2502   59.7602 H       1  ZINC001009116151    0.0700
     47 H47       -10.2648   -1.2030   61.7595 H       1  ZINC001009116151    0.0700
     48 H48       -12.3101   -2.4196   61.0624 H       1  ZINC001009116151    0.0700
     49 H49       -12.2606   -0.7904   60.3468 H       1  ZINC001009116151    0.0700
     50 H50       -12.3844   -1.6933   58.2824 H       1  ZINC001009116151    0.0700
     51 H51       -12.4338   -3.3224   58.9978 H       1  ZINC001009116151    0.0700
     52 H52        -8.6218   -2.9243   61.0619 H       1  ZINC001009116151    0.0700
     53 H53       -10.1852   -3.6656   61.4799 H       1  ZINC001009116151    0.0700
     54 H54       -10.3089   -4.5685   59.4155 H       1  ZINC001009116151    0.0700
     55 H55        -8.7456   -3.8272   58.9975 H       1  ZINC001009116151    0.0700
@<TRIPOS>BOND
     1     1     2    2
     2     2     3   am
     3     2    21    1
     4     3     4    1
     5     3    29    1
     6     4     5    1
     7     4    30    1
     8     4    31    1
     9     5     6    1
    10     5    19    1
    11     5     7    1
    12     7     8    1
    13     7    19    1
    14     7     9    1
    15     9    10    1
    16     9    32    1
    17     9    33    1
    18    10    11   am
    19    10    18    1
    20    11    12    2
    21    11    13    1
    22    13    17    1
    23    13    14    1
    24    13    34    1
    25    14    15    1
    26    14    35    1
    27    14    36    1
    28    15    16    2
    29    15    37    1
    30    16    17    1
    31    16    38    1
    32    17    39    1
    33    17    40    1
    34    18    19    1
    35    18    41    1
    36    18    42    1
    37    19    20    1
    38    21    26    1
    39    21    28    1
    40    21    22    1
    41    22    23    1
    42    22    43    1
    43    22    44    1
    44    23    24    1
    45    23    45    1
    46    23    46    1
    47    24    25    1
    48    24    27    1
    49    24    47    1
    50    25    26    1
    51    25    48    1
    52    25    49    1
    53    26    50    1
    54    26    51    1
    55    27    28    1
    56    27    52    1
    57    27    53    1
    58    28    54    1
    59    28    55    1
@<TRIPOS>SUBSTRUCTURE
     1 ZINC001009116151        1 TEMP              0 ****  ****    0 ROOT


##########                                Name:    ZINC000542980334
##########                DOCK_Rotatable_Bonds:                   6
##########                         Heavy_Atoms:                  27
##########                    Molecular_Weight:             404.795
##########                DOCK_Rotatable_Bonds:                   6
##########                       Formal_Charge:           0.0300001
##########                     HBond_Acceptors:                  10
##########                        HBond_Donors:                   1
##########                         Heavy_Atoms:                  27
##########                          Grid_Score:          -32.701000
##########                     Grid_vdw_energy:          -31.738348
##########                      Grid_es_energy:           -0.962651
##########           Internal_energy_repulsive:           13.073070

@<TRIPOS>MOLECULE
ZINC000542980334
 44 46 1 0 0
SMALL
USER_CHARGES


@<TRIPOS>ATOM
      1 O1        -13.6887   -3.8976   55.9594 O.2     1  ZINC000542980334   -0.5800
      2 C2        -12.5323   -3.8077   55.5948 C.2     1  ZINC000542980334    0.7100
      3 N3        -11.5319   -3.9365   56.4887 N.am    1  ZINC000542980334   -0.7400
      4 C4        -11.8379   -4.1790   57.9007 C.3     1  ZINC000542980334    0.1800
      5 C5        -10.9045   -3.3693   58.7634 C.ar    1  ZINC000542980334   -0.1400
      6 C6         -9.6001   -3.7901   58.9564 C.ar    1  ZINC000542980334    0.1300
      7 F7         -9.1629   -4.9268   58.3716 F       1  ZINC000542980334   -0.1200
      8 C8         -8.7431   -3.0448   59.7490 C.ar    1  ZINC000542980334   -0.1500
      9 C9         -9.1905   -1.8819   60.3466 C.ar    1  ZINC000542980334   -0.0700
     10 C10       -10.4933   -1.4618   60.1538 C.ar    1  ZINC000542980334   -0.1200
     11 C11       -11.3492   -2.2022   59.3581 C.ar    1  ZINC000542980334    0.0100
     12 Cl12      -12.9849   -1.6734   59.1161 Cl      1  ZINC000542980334   -0.0400
     13 N13       -12.2507   -3.5846   54.2958 N.am    1  ZINC000542980334   -0.6300
     14 C14       -10.8582   -3.4794   53.8390 C.3     1  ZINC000542980334    0.1100
     15 C15       -10.6889   -2.1640   53.0724 C.3     1  ZINC000542980334   -0.1300
     16 C16       -11.7257   -2.0960   51.9488 C.3     1  ZINC000542980334   -0.1300
     17 C17       -13.1333   -2.1276   52.5487 C.3     1  ZINC000542980334    0.1400
     18 H18       -13.2556   -1.2889   53.2341 H       1  ZINC000542980334    0.1100
     19 N19       -14.1248   -2.0299   51.4747 N.pl3   1  ZINC000542980334   -0.3400
     20 C20       -15.3697   -2.5507   51.4937 C.2     1  ZINC000542980334    0.0600
     21 C21       -15.9640   -2.2418   50.3179 C.2     1  ZINC000542980334   -0.2300
     22 C22       -15.0511   -1.5071   49.5542 C.2     1  ZINC000542980334   -0.0200
     23 C23       -15.2955   -0.9575   48.1725 C.3     1  ZINC000542980334    0.5600
     24 F24       -14.0780   -0.8482   47.4921 F       1  ZINC000542980334   -0.1700
     25 F25       -16.1458   -1.8194   47.4714 F       1  ZINC000542980334   -0.1700
     26 F26       -15.8896    0.3052   48.2712 F       1  ZINC000542980334   -0.1600
     27 N27       -13.9505   -1.3744   50.2491 N.2     1  ZINC000542980334   -0.2300
     28 C28       -13.3302   -3.4481   53.3086 C.3     1  ZINC000542980334    0.1300
     29 H29       -10.6092   -3.8686   56.1972 H       1  ZINC000542980334    0.4000
     30 H30       -12.8677   -3.8857   58.1049 H       1  ZINC000542980334    0.0900
     31 H31       -11.7111   -5.2385   58.1232 H       1  ZINC000542980334    0.0900
     32 H32        -7.7253   -3.3727   59.9003 H       1  ZINC000542980334    0.1500
     33 H33        -8.5220   -1.3012   60.9648 H       1  ZINC000542980334    0.1500
     34 H34       -10.8421   -0.5530   60.6215 H       1  ZINC000542980334    0.1500
     35 H35       -10.1896   -3.4893   54.6999 H       1  ZINC000542980334    0.0800
     36 H36       -10.6246   -4.3176   53.1826 H       1  ZINC000542980334    0.0800
     37 H37       -10.8342   -1.3249   53.7528 H       1  ZINC000542980334    0.0800
     38 H38        -9.6868   -2.1179   52.6460 H       1  ZINC000542980334    0.0900
     39 H39       -11.5914   -1.1720   51.3862 H       1  ZINC000542980334    0.0800
     40 H40       -11.5957   -2.9488   51.2826 H       1  ZINC000542980334    0.0800
     41 H41       -15.8122   -3.1135   52.3023 H       1  ZINC000542980334    0.1900
     42 H42       -16.9659   -2.5148   50.0213 H       1  ZINC000542980334    0.1600
     43 H43       -13.2984   -4.2817   52.6069 H       1  ZINC000542980334    0.0800
     44 H44       -14.2924   -3.4352   53.8205 H       1  ZINC000542980334    0.1100
@<TRIPOS>BOND
     1     1     2    2
     2     2     3   am
     3     2    13   am
     4     3     4    1
     5     3    29    1
     6     4     5    1
     7     4    30    1
     8     4    31    1
     9     5    11   ar
    10     5     6   ar
    11     6     7    1
    12     6     8   ar
    13     8     9   ar
    14     8    32    1
    15     9    10   ar
    16     9    33    1
    17    10    11   ar
    18    10    34    1
    19    11    12    1
    20    13    28    1
    21    13    14    1
    22    14    15    1
    23    14    35    1
    24    14    36    1
    25    15    16    1
    26    15    37    1
    27    15    38    1
    28    16    17    1
    29    16    39    1
    30    16    40    1
    31    17    18    1
    32    17    19    1
    33    17    28    1
    34    19    27    1
    35    19    20    1
    36    20    21    2
    37    20    41    1
    38    21    22    1
    39    21    42    1
    40    22    23    1
    41    22    27    2
    42    23    24    1
    43    23    25    1
    44    23    26    1
    45    28    43    1
    46    28    44    1
@<TRIPOS>SUBSTRUCTURE
     1 ZINC000542980334        1 TEMP              0 ****  ****    0 ROOT


##########                                Name:    ZINC000919225759
##########                DOCK_Rotatable_Bonds:                   4
##########                         Heavy_Atoms:                  27
##########                    Molecular_Weight:             375.295
##########                DOCK_Rotatable_Bonds:                   4
##########                       Formal_Charge:                0.04
##########                     HBond_Acceptors:                  11
##########                        HBond_Donors:                   0
##########                         Heavy_Atoms:                  27
##########                          Grid_Score:          -32.699635
##########                     Grid_vdw_energy:          -30.900345
##########                      Grid_es_energy:           -1.799291
##########           Internal_energy_repulsive:            6.675586

@<TRIPOS>MOLECULE
ZINC000919225759
 40 41 1 0 0
SMALL
USER_CHARGES


@<TRIPOS>ATOM
      1 C1         -8.4458   -0.1423   63.8213 C.3     1  ZINC000919225759   -0.1500
      2 C2         -9.7779    0.4533   64.1981 C.ar    1  ZINC000919225759    0.0900
      3 C3        -10.8085    0.5133   63.2581 C.ar    1  ZINC000919225759   -0.1200
      4 C4        -10.5974   -0.0065   61.8915 C.2     1  ZINC000919225759    0.5200
      5 O5        -10.5270    0.7619   60.9535 O.2     1  ZINC000919225759   -0.4700
      6 O6        -10.4829   -1.3329   61.6857 O.3     1  ZINC000919225759   -0.3400
      7 C7        -10.0299   -1.7598   60.3739 C.3     1  ZINC000919225759    0.1400
      8 H8         -9.3944   -0.9876   59.9399 H       1  ZINC000919225759    0.1100
      9 C9         -9.2341   -3.0597   60.5071 C.3     1  ZINC000919225759   -0.1700
     10 C10       -11.2219   -1.9897   59.4810 C.ar    1  ZINC000919225759   -0.1000
     11 C11       -11.0974   -1.8476   58.1118 C.ar    1  ZINC000919225759   -0.0400
     12 C12       -12.1910   -2.0585   57.2927 C.ar    1  ZINC000919225759   -0.1100
     13 C13       -13.4086   -2.4120   57.8428 C.ar    1  ZINC000919225759   -0.0500
     14 C14       -13.5329   -2.5551   59.2124 C.ar    1  ZINC000919225759   -0.0400
     15 N15       -14.8370   -2.9331   59.8016 N.pl3   1  ZINC000919225759    0.0300
     16 O16       -15.8006   -3.1182   59.0800 O.2     1  ZINC000919225759   -0.1500
     17 O17       -14.9466   -3.0592   61.0081 O.2     1  ZINC000919225759   -0.1500
     18 C18       -12.4386   -2.3484   60.0309 C.ar    1  ZINC000919225759   -0.0400
     19 C19       -12.0399    1.0664   63.6158 C.ar    1  ZINC000919225759    0.0500
     20 C20       -12.2302    1.5494   64.8935 C.ar    1  ZINC000919225759   -0.0600
     21 N21       -13.5349    2.1355   65.2747 N.pl3   1  ZINC000919225759    0.0300
     22 O22       -14.4388    2.1910   64.4602 O.2     1  ZINC000919225759   -0.1300
     23 O23       -13.7045    2.5626   66.4026 O.2     1  ZINC000919225759   -0.1300
     24 C24       -11.2044    1.4869   65.8203 C.ar    1  ZINC000919225759    0.0400
     25 C25        -9.9837    0.9354   65.4742 C.ar    1  ZINC000919225759   -0.0500
     26 N26        -8.8924    0.8722   66.4723 N.pl3   1  ZINC000919225759    0.0200
     27 O27        -8.7322    1.7887   67.2583 O.2     1  ZINC000919225759   -0.1300
     28 O28        -8.1546   -0.0963   66.5075 O.2     1  ZINC000919225759   -0.1200
     29 H29        -8.4922   -1.2269   63.9189 H       1  ZINC000919225759    0.1200
     30 H30        -8.2091    0.1200   62.7901 H       1  ZINC000919225759    0.1200
     31 H31        -7.6728    0.2493   64.4824 H       1  ZINC000919225759    0.0900
     32 H32        -9.8694   -3.8317   60.9410 H       1  ZINC000919225759    0.0700
     33 H33        -8.8940   -3.3801   59.5223 H       1  ZINC000919225759    0.0900
     34 H34        -8.3719   -2.8934   61.1529 H       1  ZINC000919225759    0.0700
     35 H35       -10.1459   -1.5714   57.6820 H       1  ZINC000919225759    0.1500
     36 H36       -12.0938   -1.9468   56.2229 H       1  ZINC000919225759    0.1500
     37 H37       -14.2630   -2.5761   57.2029 H       1  ZINC000919225759    0.1600
     38 H38       -12.5357   -2.4601   61.1008 H       1  ZINC000919225759    0.1600
     39 H39       -12.8412    1.1162   62.8934 H       1  ZINC000919225759    0.1900
     40 H40       -11.3587    1.8669   66.8194 H       1  ZINC000919225759    0.1900
@<TRIPOS>BOND
     1     1     2    1
     2     1    29    1
     3     1    30    1
     4     1    31    1
     5     2    25   ar
     6     2     3   ar
     7     3     4    1
     8     3    19   ar
     9     4     5    2
    10     4     6    1
    11     6     7    1
    12     7     8    1
    13     7     9    1
    14     7    10    1
    15     9    32    1
    16     9    33    1
    17     9    34    1
    18    10    18   ar
    19    10    11   ar
    20    11    12   ar
    21    11    35    1
    22    12    13   ar
    23    12    36    1
    24    13    14   ar
    25    13    37    1
    26    14    15    1
    27    14    18   ar
    28    15    16    2
    29    15    17    2
    30    18    38    1
    31    19    20   ar
    32    19    39    1
    33    20    21    1
    34    20    24   ar
    35    21    22    2
    36    21    23    2
    37    24    25   ar
    38    24    40    1
    39    25    26    1
    40    26    27    2
    41    26    28    2
@<TRIPOS>SUBSTRUCTURE
     1 ZINC000919225759        1 TEMP              0 ****  ****    0 ROOT


##########                                Name:    ZINC000263872566
##########                DOCK_Rotatable_Bonds:                   9
##########                         Heavy_Atoms:                  26
##########                    Molecular_Weight:             362.469
##########                DOCK_Rotatable_Bonds:                   9
##########                       Formal_Charge:           0.0300001
##########                     HBond_Acceptors:                   6
##########                        HBond_Donors:                   2
##########                         Heavy_Atoms:                  26
##########                          Grid_Score:          -32.689968
##########                     Grid_vdw_energy:          -30.932549
##########                      Grid_es_energy:           -1.757421
##########           Internal_energy_repulsive:           18.520754

@<TRIPOS>MOLECULE
ZINC000263872566
 56 57 1 0 0
SMALL
USER_CHARGES


@<TRIPOS>ATOM
      1 C1        -14.3248   -1.3754   49.7375 C.3     1  ZINC000263872566   -0.1800
      2 C2        -13.8062   -0.5027   50.8822 C.3     1  ZINC000263872566    0.1400
      3 H3        -13.1020    0.2309   50.4895 H       1  ZINC000263872566    0.0700
      4 O4        -14.9029    0.1734   51.5003 O.3     1  ZINC000263872566   -0.5600
      5 C5        -13.1123   -1.3701   51.9006 C.ar    1  ZINC000263872566   -0.0800
      6 C6        -13.7192   -2.5275   52.3510 C.ar    1  ZINC000263872566   -0.0900
      7 C7        -13.0829   -3.3232   53.2853 C.ar    1  ZINC000263872566   -0.1000
      8 C8        -11.8393   -2.9617   53.7687 C.ar    1  ZINC000263872566   -0.1100
      9 C9        -11.1456   -3.8289   54.7874 C.3     1  ZINC000263872566    0.1800
     10 N10       -10.7475   -3.0105   55.9354 N.am    1  ZINC000263872566   -0.7400
     11 C11       -10.4531   -3.5981   57.1121 C.2     1  ZINC000263872566    0.7100
     12 O12       -10.5180   -4.8073   57.2209 O.2     1  ZINC000263872566   -0.5900
     13 N13       -10.0868   -2.8451   58.1683 N.am    1  ZINC000263872566   -0.6300
     14 C14       -10.0096   -1.3823   58.0540 C.3     1  ZINC000263872566    0.1100
     15 C15       -10.8561   -0.7556   59.1663 C.3     1  ZINC000263872566   -0.1200
     16 C16       -10.4004   -1.3052   60.5199 C.3     1  ZINC000263872566   -0.0800
     17 C17       -11.2082   -0.6652   61.6194 C.2     1  ZINC000263872566    0.4700
     18 O18       -12.3799   -0.4253   61.4471 O.2     1  ZINC000263872566   -0.5000
     19 O19       -10.6261   -0.3616   62.7902 O.3     1  ZINC000263872566   -0.3500
     20 C20       -10.5102    1.0471   63.1230 C.3     1  ZINC000263872566    0.1200
     21 C21       -10.2522    1.8528   61.8482 C.3     1  ZINC000263872566   -0.1800
     22 C22       -11.8092    1.5256   63.7747 C.3     1  ZINC000263872566   -0.1400
     23 C23        -9.3474    1.2470   64.0969 C.3     1  ZINC000263872566   -0.1800
     24 C24       -10.6064   -2.8213   60.5523 C.3     1  ZINC000263872566   -0.1300
     25 C25        -9.7629   -3.4711   59.4575 C.3     1  ZINC000263872566    0.1300
     26 C26       -11.2317   -1.8050   53.3172 C.ar    1  ZINC000263872566   -0.1000
     27 C27       -11.8664   -1.0113   52.3802 C.ar    1  ZINC000263872566   -0.1100
     28 H28       -15.0290   -2.1089   50.1302 H       1  ZINC000263872566    0.0700
     29 H29       -14.8266   -0.7479   49.0009 H       1  ZINC000263872566    0.0600
     30 H30       -13.4883   -1.8911   49.2660 H       1  ZINC000263872566    0.0700
     31 H31       -15.5695   -0.4188   51.8746 H       1  ZINC000263872566    0.3800
     32 H32       -14.6909   -2.8099   51.9734 H       1  ZINC000263872566    0.1300
     33 H33       -13.5574   -4.2271   53.6377 H       1  ZINC000263872566    0.1300
     34 H34       -11.8250   -4.6141   55.1191 H       1  ZINC000263872566    0.0800
     35 H35       -10.2607   -4.2799   54.3384 H       1  ZINC000263872566    0.0800
     36 H36       -10.6957   -2.0458   55.8487 H       1  ZINC000263872566    0.4000
     37 H37        -8.9731   -1.0619   58.1589 H       1  ZINC000263872566    0.0800
     38 H38       -10.3940   -1.0710   57.0826 H       1  ZINC000263872566    0.0800
     39 H39       -10.7310    0.3271   59.1525 H       1  ZINC000263872566    0.0900
     40 H40       -11.9058   -1.0029   59.0079 H       1  ZINC000263872566    0.0800
     41 H41        -9.3442   -1.0792   60.6666 H       1  ZINC000263872566    0.1100
     42 H42       -11.0807    1.7104   61.1544 H       1  ZINC000263872566    0.0600
     43 H43       -10.1652    2.9102   62.0981 H       1  ZINC000263872566    0.0700
     44 H44        -9.3267    1.5118   61.3840 H       1  ZINC000263872566    0.0800
     45 H45       -11.9931    0.9517   64.6828 H       1  ZINC000263872566    0.0700
     46 H46       -11.7222    2.5831   64.0245 H       1  ZINC000263872566    0.0800
     47 H47       -12.6377    1.3832   63.0808 H       1  ZINC000263872566    0.0700
     48 H48        -8.4219    0.9061   63.6327 H       1  ZINC000263872566    0.0800
     49 H49        -9.2603    2.3044   64.3468 H       1  ZINC000263872566    0.0700
     50 H50        -9.5311    0.6730   65.0051 H       1  ZINC000263872566    0.0600
     51 H51       -10.3034   -3.2089   61.5250 H       1  ZINC000263872566    0.0900
     52 H52       -11.6584   -3.0493   60.3809 H       1  ZINC000263872566    0.0700
     53 H53        -9.9817   -4.5379   59.4123 H       1  ZINC000263872566    0.1000
     54 H54        -8.7051   -3.3217   59.6740 H       1  ZINC000263872566    0.0700
     55 H55       -10.2600   -1.5228   53.6946 H       1  ZINC000263872566    0.1300
     56 H56       -11.3918   -0.1077   52.0275 H       1  ZINC000263872566    0.1300
@<TRIPOS>BOND
     1     1     2    1
     2     1    28    1
     3     1    29    1
     4     1    30    1
     5     2     3    1
     6     2     4    1
     7     2     5    1
     8     4    31    1
     9     5    27   ar
    10     5     6   ar
    11     6     7   ar
    12     6    32    1
    13     7     8   ar
    14     7    33    1
    15     8     9    1
    16     8    26   ar
    17     9    10    1
    18     9    34    1
    19     9    35    1
    20    10    11   am
    21    10    36    1
    22    11    12    2
    23    11    13   am
    24    13    25    1
    25    13    14    1
    26    14    15    1
    27    14    37    1
    28    14    38    1
    29    15    16    1
    30    15    39    1
    31    15    40    1
    32    16    17    1
    33    16    24    1
    34    16    41    1
    35    17    18    2
    36    17    19    1
    37    19    20    1
    38    20    21    1
    39    20    22    1
    40    20    23    1
    41    21    42    1
    42    21    43    1
    43    21    44    1
    44    22    45    1
    45    22    46    1
    46    22    47    1
    47    23    48    1
    48    23    49    1
    49    23    50    1
    50    24    25    1
    51    24    51    1
    52    24    52    1
    53    25    53    1
    54    25    54    1
    55    26    27   ar
    56    26    55    1
    57    27    56    1
@<TRIPOS>SUBSTRUCTURE
     1 ZINC000263872566        1 TEMP              0 ****  ****    0 ROOT


##########                                Name:    ZINC001078748831
##########                DOCK_Rotatable_Bonds:                   6
##########                         Heavy_Atoms:                  23
##########                    Molecular_Weight:             333.417
##########                DOCK_Rotatable_Bonds:                   6
##########                       Formal_Charge:           0.0299999
##########                     HBond_Acceptors:                   9
##########                        HBond_Donors:                   2
##########                         Heavy_Atoms:                  23
##########                          Grid_Score:          -32.667023
##########                     Grid_vdw_energy:          -29.232149
##########                      Grid_es_energy:           -3.434875
##########           Internal_energy_repulsive:            7.579957

@<TRIPOS>MOLECULE
ZINC001078748831
 42 45 1 0 0
SMALL
USER_CHARGES


@<TRIPOS>ATOM
      1 C1         -9.1461   -0.0816   62.8777 C.3     1  ZINC001078748831    0.1000
      2 N2        -10.5978    0.1114   62.8346 N.pl3   1  ZINC001078748831   -0.1400
      3 N3        -11.2576    0.8491   63.6544 N.2     1  ZINC001078748831   -0.2900
      4 C4        -12.5301    0.8056   63.3406 C.2     1  ZINC001078748831    0.0400
      5 C5        -12.6199   -0.0462   62.2216 C.2     1  ZINC001078748831   -0.0500
      6 C6        -13.8422   -0.4262   61.4825 C.2     1  ZINC001078748831    0.6200
      7 O7        -14.9166    0.0438   61.8025 O.2     1  ZINC001078748831   -0.5200
      8 N8        -13.7654   -1.2937   60.4539 N.am    1  ZINC001078748831   -0.7000
      9 C9        -14.9772   -1.6715   59.7225 C.3     1  ZINC001078748831    0.1500
     10 H10       -15.8039   -0.9801   59.8857 H       1  ZINC001078748831    0.1100
     11 C11       -15.3663   -3.1511   59.8940 C.3     1  ZINC001078748831   -0.1800
     12 C12       -14.4885   -3.4488   58.6648 C.3     1  ZINC001078748831    0.0800
     13 H13       -13.4495   -3.6673   58.9117 H       1  ZINC001078748831    0.1000
     14 N14       -15.0759   -4.4322   57.7451 N.3     1  ZINC001078748831   -0.6700
     15 C15       -14.0765   -5.4240   57.3263 C.3     1  ZINC001078748831    0.1400
     16 C16       -13.4229   -4.9694   56.0467 C.2     1  ZINC001078748831    0.0600
     17 N17       -13.8371   -5.3095   54.8578 N.2     1  ZINC001078748831   -0.5700
     18 S18       -12.9050   -4.6398   53.8013 S.3     1  ZINC001078748831    0.6800
     19 N19       -11.9406   -3.8941   54.7747 N.2     1  ZINC001078748831   -0.5700
     20 C20       -12.3198   -4.1397   55.9982 C.2     1  ZINC001078748831    0.0500
     21 C21       -14.7289   -1.9942   58.2486 C.3     1  ZINC001078748831   -0.1000
     22 C22       -15.7586   -1.6386   57.1756 C.3     1  ZINC001078748831   -0.1000
     23 C23       -14.8697   -0.4252   56.8477 C.3     1  ZINC001078748831   -0.1400
     24 C24       -13.6904   -1.2232   57.4330 C.3     1  ZINC001078748831   -0.1200
     25 N25       -11.3781   -0.4306   61.9682 N.2     1  ZINC001078748831   -0.2500
     26 H26        -8.6600    0.6803   62.2683 H       1  ZINC001078748831    0.1000
     27 H27        -8.7990    0.0010   63.9077 H       1  ZINC001078748831    0.1100
     28 H28        -8.8993   -1.0697   62.4893 H       1  ZINC001078748831    0.1100
     29 H29       -13.3416    1.3164   63.8375 H       1  ZINC001078748831    0.2100
     30 H30       -12.9079   -1.6678   60.1979 H       1  ZINC001078748831    0.4100
     31 H31       -14.9916   -3.5965   60.8156 H       1  ZINC001078748831    0.0700
     32 H32       -16.4263   -3.3451   59.7301 H       1  ZINC001078748831    0.1000
     33 H33       -15.8787   -4.8809   58.1600 H       1  ZINC001078748831    0.3500
     34 H34       -13.3198   -5.5280   58.1039 H       1  ZINC001078748831    0.1000
     35 H35       -14.5644   -6.3851   57.1634 H       1  ZINC001078748831    0.0600
     36 H36       -11.8244   -3.7447   56.8728 H       1  ZINC001078748831    0.2000
     37 H37       -15.8184   -2.3681   56.3679 H       1  ZINC001078748831    0.1000
     38 H38       -16.7350   -1.3695   57.5783 H       1  ZINC001078748831    0.0700
     39 H39       -14.7760   -0.2292   55.7795 H       1  ZINC001078748831    0.0700
     40 H40       -15.1203    0.4668   57.4218 H       1  ZINC001078748831    0.0800
     41 H41       -13.0146   -0.6222   58.0415 H       1  ZINC001078748831    0.0700
     42 H42       -13.1688   -1.8359   56.6977 H       1  ZINC001078748831    0.0900
@<TRIPOS>BOND
     1     1     2    1
     2     1    26    1
     3     1    27    1
     4     1    28    1
     5     2    25    1
     6     2     3    1
     7     3     4    2
     8     4     5    1
     9     4    29    1
    10     5     6    1
    11     5    25    2
    12     6     7    2
    13     6     8   am
    14     8     9    1
    15     8    30    1
    16     9    10    1
    17     9    21    1
    18     9    11    1
    19    11    12    1
    20    11    31    1
    21    11    32    1
    22    12    13    1
    23    12    14    1
    24    12    21    1
    25    14    15    1
    26    14    33    1
    27    15    16    1
    28    15    34    1
    29    15    35    1
    30    16    20    1
    31    16    17    2
    32    17    18    1
    33    18    19    1
    34    19    20    2
    35    20    36    1
    36    21    24    1
    37    21    22    1
    38    22    23    1
    39    22    37    1
    40    22    38    1
    41    23    24    1
    42    23    39    1
    43    23    40    1
    44    24    41    1
    45    24    42    1
@<TRIPOS>SUBSTRUCTURE
     1 ZINC001078748831        1 TEMP              0 ****  ****    0 ROOT


##########                                Name:    ZINC000751548479
##########                DOCK_Rotatable_Bonds:                   9
##########                         Heavy_Atoms:                  27
##########                    Molecular_Weight:             389.407
##########                DOCK_Rotatable_Bonds:                   9
##########                       Formal_Charge:           0.0199995
##########                     HBond_Acceptors:                   9
##########                        HBond_Donors:                   2
##########                         Heavy_Atoms:                  27
##########                          Grid_Score:          -32.652069
##########                     Grid_vdw_energy:          -32.305611
##########                      Grid_es_energy:           -0.346459
##########           Internal_energy_repulsive:            6.574612

@<TRIPOS>MOLECULE
ZINC000751548479
 43 44 1 0 0
SMALL
USER_CHARGES


@<TRIPOS>ATOM
      1 C1         -9.0018    0.4633   63.2537 C.3     1  ZINC000751548479   -0.1600
      2 C2         -9.6627    0.2357   61.8926 C.3     1  ZINC000751548479    0.0800
      3 O3         -9.2773   -1.0667   61.3793 O.3     1  ZINC000751548479   -0.3600
      4 C4         -9.8224   -1.4480   60.2085 C.2     1  ZINC000751548479    0.6500
      5 O5         -9.8477   -0.6763   59.2703 O.2     1  ZINC000751548479   -0.5400
      6 N6        -10.3398   -2.6855   60.0774 N.am    1  ZINC000751548479   -0.6500
      7 C7        -10.9050   -3.0810   58.8633 C.ar    1  ZINC000751548479    0.2000
      8 C8        -10.0900   -3.4812   57.8144 C.ar    1  ZINC000751548479   -0.1000
      9 C9        -10.6472   -3.8724   56.6134 C.ar    1  ZINC000751548479   -0.1000
     10 C10       -12.0277   -3.8687   56.4453 C.ar    1  ZINC000751548479    0.1300
     11 N11       -12.5831   -4.2667   55.2240 N.am    1  ZINC000751548479   -1.0500
     12 S12       -12.8694   -3.1450   54.0399 S.o2    1  ZINC000751548479    2.6800
     13 O13       -13.2835   -3.8713   52.8908 O.2     1  ZINC000751548479   -0.9500
     14 O14       -13.6542   -2.1222   54.6373 O.2     1  ZINC000751548479   -0.9400
     15 C15       -11.3207   -2.4099   53.6324 C.2     1  ZINC000751548479   -0.7500
     16 C16       -11.2451   -1.1058   53.4057 C.2     1  ZINC000751548479    0.0700
     17 C17        -9.9459   -0.4889   53.0657 C.ar    1  ZINC000751548479   -0.1100
     18 C18        -8.9774   -1.2270   52.3838 C.ar    1  ZINC000751548479   -0.0600
     19 C19        -7.7667   -0.6463   52.0686 C.ar    1  ZINC000751548479   -0.1600
     20 C20        -7.5109    0.6673   52.4281 C.ar    1  ZINC000751548479    0.1200
     21 F21        -6.3233    1.2312   52.1172 F       1  ZINC000751548479   -0.1300
     22 C22        -8.4693    1.4047   53.1047 C.ar    1  ZINC000751548479   -0.1600
     23 C23        -9.6853    0.8354   53.4203 C.ar    1  ZINC000751548479   -0.0500
     24 C24       -12.8543   -3.4727   57.4834 C.ar    1  ZINC000751548479   -0.0600
     25 C25       -12.2986   -3.0802   58.7029 C.ar    1  ZINC000751548479   -0.0300
     26 C26       -13.1468   -2.6698   59.7812 C.1     1  ZINC000751548479    0.2500
     27 N27       -13.8197   -2.3443   60.6367 N.1     1  ZINC000751548479   -0.4000
     28 H28        -7.9182    0.4226   63.1427 H       1  ZINC000751548479    0.0700
     29 H29        -9.2911    1.4410   63.6391 H       1  ZINC000751548479    0.0900
     30 H30        -9.3253   -0.3114   63.9488 H       1  ZINC000751548479    0.0700
     31 H31       -10.7463    0.2765   62.0036 H       1  ZINC000751548479    0.0800
     32 H32        -9.3393    1.0104   61.1976 H       1  ZINC000751548479    0.0800
     33 H33       -10.3196   -3.3015   60.8264 H       1  ZINC000751548479    0.4200
     34 H34        -9.0171   -3.4862   57.9375 H       1  ZINC000751548479    0.1600
     35 H35       -10.0077   -4.1827   55.8002 H       1  ZINC000751548479    0.1700
     36 H36       -12.8004   -5.1996   55.0711 H       1  ZINC000751548479    0.4300
     37 H37       -10.4331   -3.0216   53.5674 H       1  ZINC000751548479    0.1700
     38 H38       -12.1331   -0.4943   53.4694 H       1  ZINC000751548479    0.1500
     39 H39        -9.1755   -2.2511   52.1039 H       1  ZINC000751548479    0.1400
     40 H40        -7.0165   -1.2166   51.5409 H       1  ZINC000751548479    0.1400
     41 H41        -8.2651    2.4283   53.3824 H       1  ZINC000751548479    0.1400
     42 H42       -10.4317    1.4110   53.9474 H       1  ZINC000751548479    0.1400
     43 H43       -13.9261   -3.4704   57.3512 H       1  ZINC000751548479    0.1500
@<TRIPOS>BOND
     1     1     2    1
     2     1    28    1
     3     1    29    1
     4     1    30    1
     5     2     3    1
     6     2    31    1
     7     2    32    1
     8     3     4    1
     9     4     5    2
    10     4     6   am
    11     6     7    1
    12     6    33    1
    13     7    25   ar
    14     7     8   ar
    15     8     9   ar
    16     8    34    1
    17     9    10   ar
    18     9    35    1
    19    10    11    1
    20    10    24   ar
    21    11    12   am
    22    11    36    1
    23    12    13    2
    24    12    14    2
    25    12    15    1
    26    15    16    2
    27    15    37    1
    28    16    17    1
    29    16    38    1
    30    17    23   ar
    31    17    18   ar
    32    18    19   ar
    33    18    39    1
    34    19    20   ar
    35    19    40    1
    36    20    21    1
    37    20    22   ar
    38    22    23   ar
    39    22    41    1
    40    23    42    1
    41    24    25   ar
    42    24    43    1
    43    25    26    1
    44    26    27    3
@<TRIPOS>SUBSTRUCTURE
     1 ZINC000751548479        1 TEMP              0 ****  ****    0 ROOT


##########                                Name:    ZINC000572148596
##########                DOCK_Rotatable_Bonds:                   4
##########                         Heavy_Atoms:                  26
##########                    Molecular_Weight:             371.463
##########                DOCK_Rotatable_Bonds:                   4
##########                       Formal_Charge:          -0.0199999
##########                     HBond_Acceptors:                   8
##########                        HBond_Donors:                   0
##########                         Heavy_Atoms:                  26
##########                          Grid_Score:          -32.649151
##########                     Grid_vdw_energy:          -32.346764
##########                      Grid_es_energy:           -0.302386
##########           Internal_energy_repulsive:            9.330870

@<TRIPOS>MOLECULE
ZINC000572148596
 47 50 1 0 0
SMALL
USER_CHARGES


@<TRIPOS>ATOM
      1 C1         -8.4635    1.0151   65.9053 C.3     1  ZINC000572148596   -0.1400
      2 C2         -9.4307    1.4450   64.8005 C.3     1  ZINC000572148596    0.0800
      3 H3         -9.1559    2.4374   64.4429 H       1  ZINC000572148596    0.1200
      4 C4         -9.3595    0.4625   63.6600 C.2     1  ZINC000572148596    0.1800
      5 N5         -8.4099   -0.4006   63.4486 N.2     1  ZINC000572148596   -0.3500
      6 O6         -8.6399   -1.0490   62.4498 O.3     1  ZINC000572148596    0.0900
      7 C7         -9.8005   -0.6481   61.9076 C.2     1  ZINC000572148596    0.2300
      8 C8        -10.4356   -1.1840   60.6874 C.ar    1  ZINC000572148596   -0.1200
      9 C9        -11.6972   -0.7249   60.2819 C.ar    1  ZINC000572148596   -0.0100
     10 C10       -12.2485   -1.2500   59.1434 C.ar    1  ZINC000572148596   -0.1900
     11 C11       -11.5466   -2.2166   58.4270 C.ar    1  ZINC000572148596    0.3400
     12 N12       -12.1015   -2.7499   57.2739 N.3     1  ZINC000572148596   -0.4700
     13 C13       -12.8174   -4.0008   57.5635 C.3     1  ZINC000572148596    0.0300
     14 C14       -13.4631   -4.5225   56.2771 C.3     1  ZINC000572148596    0.0900
     15 H15       -13.9470   -5.4791   56.4747 H       1  ZINC000572148596    0.1100
     16 C16       -14.5042   -3.5159   55.7833 C.3     1  ZINC000572148596   -0.1800
     17 O17       -12.4536   -4.6951   55.2789 O.3     1  ZINC000572148596   -0.3700
     18 C18       -11.7367   -3.4963   54.9718 C.3     1  ZINC000572148596    0.0800
     19 H19       -12.4276   -2.7490   54.5817 H       1  ZINC000572148596    0.0700
     20 C20       -10.6639   -3.7971   53.9231 C.3     1  ZINC000572148596   -0.1400
     21 C21       -11.0736   -2.9642   56.2450 C.3     1  ZINC000572148596    0.0300
     22 N22       -10.3550   -2.6333   58.8323 N.ar    1  ZINC000572148596   -0.5200
     23 C23        -9.7867   -2.1504   59.9178 C.ar    1  ZINC000572148596    0.1900
     24 N24       -10.2671    0.3161   62.6826 N.2     1  ZINC000572148596   -0.4700
     25 C25       -10.8346    1.4793   65.3472 C.2     1  ZINC000572148596    0.0400
     26 N26       -11.1477    1.3210   66.5889 N.2     1  ZINC000572148596   -0.4500
     27 C27       -12.4272    1.3809   66.8983 C.2     1  ZINC000572148596    0.0400
     28 C28       -13.2388    1.6021   65.8597 C.2     1  ZINC000572148596   -0.2500
     29 S29       -12.2426    1.7407   64.4130 S.3     1  ZINC000572148596    0.1400
     30 H30        -8.7384    0.0228   66.2630 H       1  ZINC000572148596    0.0800
     31 H31        -7.4481    0.9904   65.5099 H       1  ZINC000572148596    0.0700
     32 H32        -8.5150    1.7258   66.7301 H       1  ZINC000572148596    0.0800
     33 H33       -12.2222    0.0253   60.8545 H       1  ZINC000572148596    0.1500
     34 H34       -13.2187   -0.9179   58.8045 H       1  ZINC000572148596    0.1500
     35 H35       -12.1153   -4.7422   57.9449 H       1  ZINC000572148596    0.0600
     36 H36       -13.5906   -3.8135   58.3087 H       1  ZINC000572148596    0.1000
     37 H37       -14.0195   -2.5600   55.5844 H       1  ZINC000572148596    0.0700
     38 H38       -14.9635   -3.8878   54.8674 H       1  ZINC000572148596    0.0600
     39 H39       -15.2712   -3.3825   56.5463 H       1  ZINC000572148596    0.0700
     40 H40       -11.1370   -4.1790   53.0186 H       1  ZINC000572148596    0.0700
     41 H41       -10.1180   -2.8830   53.6895 H       1  ZINC000572148596    0.0700
     42 H42        -9.9725   -4.5433   54.3144 H       1  ZINC000572148596    0.0600
     43 H43       -10.5737   -2.0203   56.0277 H       1  ZINC000572148596    0.1000
     44 H44       -10.3435   -3.6891   56.6052 H       1  ZINC000572148596    0.0600
     45 H45        -8.8148   -2.5119   60.2199 H       1  ZINC000572148596    0.1700
     46 H46       -12.7904    1.2609   67.9083 H       1  ZINC000572148596    0.1800
     47 H47       -14.3148    1.6850   65.9006 H       1  ZINC000572148596    0.1800
@<TRIPOS>BOND
     1     1     2    1
     2     1    30    1
     3     1    31    1
     4     1    32    1
     5     2     3    1
     6     2     4    1
     7     2    25    1
     8     4    24    1
     9     4     5    2
    10     5     6    1
    11     6     7    1
    12     7     8    1
    13     7    24    2
    14     8    23   ar
    15     8     9   ar
    16     9    10   ar
    17     9    33    1
    18    10    11   ar
    19    10    34    1
    20    11    12    1
    21    11    22   ar
    22    12    21    1
    23    12    13    1
    24    13    14    1
    25    13    35    1
    26    13    36    1
    27    14    15    1
    28    14    16    1
    29    14    17    1
    30    16    37    1
    31    16    38    1
    32    16    39    1
    33    17    18    1
    34    18    19    1
    35    18    20    1
    36    18    21    1
    37    20    40    1
    38    20    41    1
    39    20    42    1
    40    21    43    1
    41    21    44    1
    42    22    23   ar
    43    23    45    1
    44    25    29    1
    45    25    26    2
    46    26    27    1
    47    27    28    2
    48    27    46    1
    49    28    29    1
    50    28    47    1
@<TRIPOS>SUBSTRUCTURE
     1 ZINC000572148596        1 TEMP              0 ****  ****    0 ROOT


##########                                Name:    ZINC000451500596
##########                DOCK_Rotatable_Bonds:                   7
##########                         Heavy_Atoms:                  25
##########                    Molecular_Weight:             365.497
##########                DOCK_Rotatable_Bonds:                   7
##########                       Formal_Charge:           0.0400004
##########                     HBond_Acceptors:                   7
##########                        HBond_Donors:                   2
##########                         Heavy_Atoms:                  25
##########                          Grid_Score:          -32.638470
##########                     Grid_vdw_energy:          -32.407169
##########                      Grid_es_energy:           -0.231302
##########           Internal_energy_repulsive:           12.665329

@<TRIPOS>MOLECULE
ZINC000451500596
 52 54 1 0 0
SMALL
USER_CHARGES


@<TRIPOS>ATOM
      1 C1        -15.2422   -3.1075   59.2667 C.3     1  ZINC000451500596   -0.6700
      2 S2        -15.4394   -2.6572   57.5206 S.o2    1  ZINC000451500596    2.6100
      3 O3        -16.7713   -2.9021   57.0899 O.2     1  ZINC000451500596   -0.9500
      4 O4        -14.7978   -1.4186   57.2495 O.2     1  ZINC000451500596   -0.9600
      5 N5        -14.5331   -3.7746   56.7008 N.am    1  ZINC000451500596   -1.1200
      6 C6        -14.4536   -3.7230   55.2389 C.3     1  ZINC000451500596    0.1200
      7 C7        -13.2973   -2.8115   54.8228 C.3     1  ZINC000451500596   -0.1000
      8 H8        -13.3769   -1.8514   55.3327 H       1  ZINC000451500596    0.0900
      9 C9        -13.3138   -2.6010   53.2946 C.3     1  ZINC000451500596   -0.1200
     10 C10       -11.8166   -2.5740   52.8987 C.3     1  ZINC000451500596   -0.1300
     11 C11       -11.1985   -3.6505   53.8252 C.3     1  ZINC000451500596   -0.1300
     12 C12       -11.9524   -3.4782   55.1613 C.3     1  ZINC000451500596    0.1400
     13 H13       -12.1236   -4.4512   55.6216 H       1  ZINC000451500596    0.1000
     14 N14       -11.1800   -2.6239   56.0667 N.am    1  ZINC000451500596   -0.7200
     15 C15       -11.0348   -2.9712   57.3608 C.2     1  ZINC000451500596    0.5300
     16 O16       -11.5449   -3.9902   57.7762 O.2     1  ZINC000451500596   -0.5300
     17 C17       -10.2388   -2.0934   58.2919 C.3     1  ZINC000451500596   -0.1300
     18 H18        -9.2798   -2.5545   58.5282 H       1  ZINC000451500596    0.1000
     19 C19       -10.0329   -0.6847   57.6755 C.3     1  ZINC000451500596   -0.1200
     20 C20        -9.8521    0.1879   58.9426 C.3     1  ZINC000451500596    0.0500
     21 N21       -10.7854   -0.3880   59.9340 N.3     1  ZINC000451500596   -0.4900
     22 C22       -10.2692   -0.2831   61.2276 C.ar    1  ZINC000451500596    0.0800
     23 C23       -10.9398    0.4658   62.1861 C.ar    1  ZINC000451500596   -0.0900
     24 C24       -10.4268    0.5671   63.4643 C.ar    1  ZINC000451500596   -0.1100
     25 C25        -9.2465   -0.0756   63.7903 C.ar    1  ZINC000451500596   -0.1200
     26 C26        -8.5762   -0.8219   62.8384 C.ar    1  ZINC000451500596   -0.1100
     27 C27        -9.0867   -0.9321   61.5599 C.ar    1  ZINC000451500596   -0.1500
     28 C28       -11.0357   -1.8005   59.5805 C.3     1  ZINC000451500596    0.0600
     29 H29       -15.6078   -4.1222   59.4238 H       1  ZINC000451500596    0.1300
     30 H30       -14.1879   -3.0549   59.5386 H       1  ZINC000451500596    0.1300
     31 H31       -15.8123   -2.4158   59.8870 H       1  ZINC000451500596    0.1300
     32 H32       -14.0549   -4.4634   57.1885 H       1  ZINC000451500596    0.4200
     33 H33       -14.2837   -4.7264   54.8485 H       1  ZINC000451500596    0.0700
     34 H34       -15.3881   -3.3305   54.8378 H       1  ZINC000451500596    0.0900
     35 H35       -13.8240   -3.4283   52.8011 H       1  ZINC000451500596    0.0800
     36 H36       -13.7915   -1.6537   53.0451 H       1  ZINC000451500596    0.0700
     37 H37       -11.6891   -2.8467   51.8511 H       1  ZINC000451500596    0.0700
     38 H38       -11.3815   -1.5951   53.1000 H       1  ZINC000451500596    0.0700
     39 H39       -11.3672   -4.6472   53.4174 H       1  ZINC000451500596    0.0800
     40 H40       -10.1327   -3.4689   53.9629 H       1  ZINC000451500596    0.0700
     41 H41       -10.7731   -1.8083   55.7349 H       1  ZINC000451500596    0.4000
     42 H42        -9.1390   -0.6579   57.0522 H       1  ZINC000451500596    0.0800
     43 H43       -10.9110   -0.3740   57.1095 H       1  ZINC000451500596    0.0800
     44 H44        -8.8261    0.1230   59.3049 H       1  ZINC000451500596    0.0600
     45 H45       -10.1156    1.2241   58.7305 H       1  ZINC000451500596    0.0900
     46 H46       -11.8614    0.9685   61.9321 H       1  ZINC000451500596    0.1300
     47 H47       -10.9478    1.1491   64.2101 H       1  ZINC000451500596    0.1300
     48 H48        -8.8471    0.0059   64.7903 H       1  ZINC000451500596    0.1200
     49 H49        -7.6547   -1.3225   63.0963 H       1  ZINC000451500596    0.1200
     50 H50        -8.5629   -1.5152   60.8170 H       1  ZINC000451500596    0.1200
     51 H51       -12.0994   -1.9544   59.3989 H       1  ZINC000451500596    0.1000
     52 H52       -10.6972   -2.4503   60.3874 H       1  ZINC000451500596    0.0700
@<TRIPOS>BOND
     1     1     2    1
     2     1    29    1
     3     1    30    1
     4     1    31    1
     5     2     3    2
     6     2     4    2
     7     2     5   am
     8     5     6    1
     9     5    32    1
    10     6     7    1
    11     6    33    1
    12     6    34    1
    13     7     8    1
    14     7    12    1
    15     7     9    1
    16     9    10    1
    17     9    35    1
    18     9    36    1
    19    10    11    1
    20    10    37    1
    21    10    38    1
    22    11    12    1
    23    11    39    1
    24    11    40    1
    25    12    13    1
    26    12    14    1
    27    14    15   am
    28    14    41    1
    29    15    16    2
    30    15    17    1
    31    17    18    1
    32    17    28    1
    33    17    19    1
    34    19    20    1
    35    19    42    1
    36    19    43    1
    37    20    21    1
    38    20    44    1
    39    20    45    1
    40    21    22    1
    41    21    28    1
    42    22    27   ar
    43    22    23   ar
    44    23    24   ar
    45    23    46    1
    46    24    25   ar
    47    24    47    1
    48    25    26   ar
    49    25    48    1
    50    26    27   ar
    51    26    49    1
    52    27    50    1
    53    28    51    1
    54    28    52    1
@<TRIPOS>SUBSTRUCTURE
     1 ZINC000451500596        1 TEMP              0 ****  ****    0 ROOT


##########                                Name:    ZINC000949401225
##########                DOCK_Rotatable_Bonds:                   7
##########                         Heavy_Atoms:                  24
##########                    Molecular_Weight:             332.403
##########                DOCK_Rotatable_Bonds:                   7
##########                       Formal_Charge:                0.03
##########                     HBond_Acceptors:                   7
##########                        HBond_Donors:                   1
##########                         Heavy_Atoms:                  24
##########                          Grid_Score:          -32.630074
##########                     Grid_vdw_energy:          -31.609833
##########                      Grid_es_energy:           -1.020239
##########           Internal_energy_repulsive:           10.122287

@<TRIPOS>MOLECULE
ZINC000949401225
 48 50 1 0 0
SMALL
USER_CHARGES


@<TRIPOS>ATOM
      1 C1        -13.6410    2.5570   47.9441 C.3     1  ZINC000949401225    0.0700
      2 N2        -13.7046    1.2835   48.6654 N.pl3   1  ZINC000949401225   -0.4500
      3 C3        -13.8901    0.0647   48.0807 C.2     1  ZINC000949401225   -0.0100
      4 C4        -13.8960   -0.8802   49.0377 C.2     1  ZINC000949401225   -0.1700
      5 C5        -13.6976   -0.1791   50.3108 C.2     1  ZINC000949401225   -0.2400
      6 C6        -13.6299   -0.7825   51.6524 C.2     1  ZINC000949401225    0.5900
      7 O7        -13.2467   -0.1208   52.5982 O.2     1  ZINC000949401225   -0.5500
      8 N8        -13.9926   -2.0680   51.8321 N.am    1  ZINC000949401225   -0.7300
      9 C9        -13.9236   -2.6689   53.1664 C.3     1  ZINC000949401225    0.1200
     10 C10       -12.7301   -3.6238   53.2347 C.3     1  ZINC000949401225    0.1200
     11 H11       -12.8767   -4.5247   52.6388 H       1  ZINC000949401225    0.1000
     12 C12       -11.3815   -2.9359   52.9811 C.3     1  ZINC000949401225   -0.1500
     13 C13       -10.8962   -3.8738   54.0951 C.3     1  ZINC000949401225    0.1000
     14 N14       -12.2760   -3.8967   54.6066 N.am    1  ZINC000949401225   -0.6400
     15 C15       -12.8638   -4.0833   55.8051 C.2     1  ZINC000949401225    0.5500
     16 O16       -14.0720   -4.0399   55.9013 O.2     1  ZINC000949401225   -0.5200
     17 C17       -12.0197   -4.3460   57.0255 C.3     1  ZINC000949401225   -0.1400
     18 C18       -11.6636   -3.0171   57.6949 C.3     1  ZINC000949401225    0.1500
     19 H19       -11.1128   -2.3816   57.0013 H       1  ZINC000949401225    0.0900
     20 C20       -12.9450   -2.2999   58.1746 C.3     1  ZINC000949401225   -0.1200
     21 C21       -12.4620   -1.6332   59.4835 C.3     1  ZINC000949401225   -0.1600
     22 C22       -11.2942   -2.4871   59.9258 C.2     1  ZINC000949401225    0.5200
     23 O23       -10.8104   -2.4800   61.0379 O.2     1  ZINC000949401225   -0.5300
     24 N24       -10.8692   -3.2551   58.9058 N.am    1  ZINC000949401225   -0.6200
     25 C25        -9.7593   -4.2071   58.9946 C.3     1  ZINC000949401225    0.0900
     26 C26       -13.5825    1.1478   49.9996 C.2     1  ZINC000949401225    0.0800
     27 H27       -12.6088    2.7631   47.6610 H       1  ZINC000949401225    0.0800
     28 H28       -14.2587    2.4982   47.0479 H       1  ZINC000949401225    0.0900
     29 H29       -14.0083    3.3572   48.5867 H       1  ZINC000949401225    0.0900
     30 H30       -14.0122   -0.1123   47.0223 H       1  ZINC000949401225    0.1700
     31 H31       -14.0221   -1.9435   48.8970 H       1  ZINC000949401225    0.1500
     32 H32       -14.2993   -2.5954   51.0780 H       1  ZINC000949401225    0.4000
     33 H33       -13.8038   -1.8837   53.9128 H       1  ZINC000949401225    0.0700
     34 H34       -14.8425   -3.2210   53.3643 H       1  ZINC000949401225    0.0900
     35 H35       -10.9506   -3.1445   52.0020 H       1  ZINC000949401225    0.1000
     36 H36       -11.3622   -1.8790   53.2467 H       1  ZINC000949401225    0.1000
     37 H37       -10.5540   -4.8419   53.7291 H       1  ZINC000949401225    0.0900
     38 H38       -10.1871   -3.4061   54.7781 H       1  ZINC000949401225    0.0800
     39 H39       -12.5771   -4.9678   57.7259 H       1  ZINC000949401225    0.1000
     40 H40       -11.1052   -4.8608   56.7307 H       1  ZINC000949401225    0.1000
     41 H41       -13.2669   -1.5509   57.4510 H       1  ZINC000949401225    0.1000
     42 H42       -13.7420   -3.0164   58.3728 H       1  ZINC000949401225    0.0800
     43 H43       -12.1363   -0.6105   59.2930 H       1  ZINC000949401225    0.1100
     44 H44       -13.2523   -1.6493   60.2340 H       1  ZINC000949401225    0.1000
     45 H45        -9.4001   -4.2516   60.0227 H       1  ZINC000949401225    0.0800
     46 H46       -10.1024   -5.1949   58.6865 H       1  ZINC000949401225    0.0600
     47 H47        -8.9497   -3.8834   58.3405 H       1  ZINC000949401225    0.0600
     48 H48       -13.4267    1.9509   50.7047 H       1  ZINC000949401225    0.1800
@<TRIPOS>BOND
     1     1     2    1
     2     1    27    1
     3     1    28    1
     4     1    29    1
     5     2    26    1
     6     2     3    1
     7     3     4    2
     8     3    30    1
     9     4     5    1
    10     4    31    1
    11     5     6    1
    12     5    26    2
    13     6     7    2
    14     6     8   am
    15     8     9    1
    16     8    32    1
    17     9    10    1
    18     9    33    1
    19     9    34    1
    20    10    11    1
    21    10    14    1
    22    10    12    1
    23    12    13    1
    24    12    35    1
    25    12    36    1
    26    13    14    1
    27    13    37    1
    28    13    38    1
    29    14    15   am
    30    15    16    2
    31    15    17    1
    32    17    18    1
    33    17    39    1
    34    17    40    1
    35    18    19    1
    36    18    24    1
    37    18    20    1
    38    20    21    1
    39    20    41    1
    40    20    42    1
    41    21    22    1
    42    21    43    1
    43    21    44    1
    44    22    23    2
    45    22    24   am
    46    24    25    1
    47    25    45    1
    48    25    46    1
    49    25    47    1
    50    26    48    1
@<TRIPOS>SUBSTRUCTURE
     1 ZINC000949401225        1 TEMP              0 ****  ****    0 ROOT


##########                                Name:    ZINC000266467123
##########                DOCK_Rotatable_Bonds:                   9
##########                         Heavy_Atoms:                  25
##########                    Molecular_Weight:             337.421
##########                DOCK_Rotatable_Bonds:                   9
##########                       Formal_Charge:                0.02
##########                     HBond_Acceptors:                   5
##########                        HBond_Donors:                   3
##########                         Heavy_Atoms:                  25
##########                          Grid_Score:          -32.606094
##########                     Grid_vdw_energy:          -31.932341
##########                      Grid_es_energy:           -0.673754
##########           Internal_energy_repulsive:           10.283301

@<TRIPOS>MOLECULE
ZINC000266467123
 48 50 1 0 0
SMALL
USER_CHARGES


@<TRIPOS>ATOM
      1 C1        -14.2568   -5.6898   56.8646 C.3     1  <0>        -0.1600
      2 C2        -14.1692   -4.2032   56.5133 C.3     1  <0>         0.1500
      3 H3        -15.1346   -3.7301   56.6925 H       1  <0>         0.1200
      4 N4        -13.8075   -4.0556   55.1014 N.am    1  <0>        -0.7300
      5 C5        -13.8620   -2.8434   54.5148 C.2     1  <0>         0.7100
      6 O6        -14.2100   -1.8721   55.1580 O.2     1  <0>        -0.5900
      7 N7        -13.5308   -2.7079   53.2156 N.am    1  <0>        -0.7100
      8 C8        -13.5884   -1.3900   52.5785 C.3     1  <0>         0.1100
      9 H9        -14.5827   -0.9509   52.4955 H       1  <0>         0.1400
     10 C10       -12.5947   -1.1066   51.4502 C.3     1  <0>        -0.1900
     11 C11       -12.4138   -0.4387   52.8156 C.3     1  <0>        -0.1500
     12 H12       -12.6351    0.6261   52.8884 H       1  <0>         0.1200
     13 C13       -11.2682   -0.9365   53.6993 C.3     1  <0>        -0.0500
     14 C14        -9.9504   -0.5534   53.0764 C.ar    1  <0>        -0.0800
     15 C15        -9.4455    0.7208   53.2561 C.ar    1  <0>        -0.1100
     16 C16        -8.2367    1.0721   52.6848 C.ar    1  <0>        -0.1200
     17 C17        -7.5327    0.1492   51.9343 C.ar    1  <0>        -0.1200
     18 C18        -8.0372   -1.1254   51.7554 C.ar    1  <0>        -0.1200
     19 C19        -9.2439   -1.4781   52.3303 C.ar    1  <0>        -0.1200
     20 C20       -13.1201   -3.5452   57.3721 C.2     1  <0>         0.5100
     21 O21       -13.4520   -2.8319   58.2951 O.2     1  <0>        -0.5100
     22 N22       -11.8131   -3.7494   57.1143 N.am    1  <0>        -0.6700
     23 C23       -10.8390   -3.1384   57.9117 C.ar    1  <0>         0.1400
     24 C24       -10.5247   -1.7990   57.7224 C.ar    1  <0>        -0.1400
     25 C25        -9.5627   -1.1989   58.5111 C.ar    1  <0>        -0.1000
     26 C26        -8.9125   -1.9303   59.4880 C.ar    1  <0>        -0.1300
     27 C27        -9.2228   -3.2643   59.6786 C.ar    1  <0>        -0.1000
     28 C28       -10.1886   -3.8686   58.8978 C.ar    1  <0>        -0.1200
     29 H29       -14.5259   -5.7998   57.9150 H       1  <0>         0.0700
     30 H30       -15.0156   -6.1659   56.2434 H       1  <0>         0.0800
     31 H31       -13.2914   -6.1630   56.6854 H       1  <0>         0.0700
     32 H32       -13.5287   -4.8304   54.5886 H       1  <0>         0.4100
     33 H33       -13.2543   -3.4831   52.7022 H       1  <0>         0.4000
     34 H34       -11.8980   -1.9007   51.1819 H       1  <0>         0.1000
     35 H35       -12.9350   -0.4808   50.6251 H       1  <0>         0.1000
     36 H36       -11.3483   -0.4834   54.6874 H       1  <0>         0.0800
     37 H37       -11.3250   -2.0210   53.7911 H       1  <0>         0.0700
     38 H38        -9.9956    1.4419   53.8424 H       1  <0>         0.1200
     39 H39        -7.8427    2.0680   52.8245 H       1  <0>         0.1200
     40 H40        -6.5887    0.4239   51.4874 H       1  <0>         0.1200
     41 H41        -7.4873   -1.8464   51.1688 H       1  <0>         0.1200
     42 H42        -9.6380   -2.4738   52.1906 H       1  <0>         0.1200
     43 H43       -11.5477   -4.3199   56.3762 H       1  <0>         0.4100
     44 H44       -11.0317   -1.2274   56.9592 H       1  <0>         0.1300
     45 H45        -9.3178   -0.1573   58.3644 H       1  <0>         0.1300
     46 H46        -8.1604   -1.4589   60.1032 H       1  <0>         0.1200
     47 H47        -8.7127   -3.8331   60.4419 H       1  <0>         0.1300
     48 H48       -10.4305   -4.9105   59.0471 H       1  <0>         0.1400
@<TRIPOS>BOND
     1     1     2    1
     2     1    29    1
     3     1    30    1
     4     1    31    1
     5     2     3    1
     6     2     4    1
     7     2    20    1
     8     4     5   am
     9     4    32    1
    10     5     6    2
    11     5     7   am
    12     7     8    1
    13     7    33    1
    14     8     9    1
    15     8    11    1
    16     8    10    1
    17    10    11    1
    18    10    34    1
    19    10    35    1
    20    11    12    1
    21    11    13    1
    22    13    14    1
    23    13    36    1
    24    13    37    1
    25    14    19   ar
    26    14    15   ar
    27    15    16   ar
    28    15    38    1
    29    16    17   ar
    30    16    39    1
    31    17    18   ar
    32    17    40    1
    33    18    19   ar
    34    18    41    1
    35    19    42    1
    36    20    21    2
    37    20    22   am
    38    22    23    1
    39    22    43    1
    40    23    28   ar
    41    23    24   ar
    42    24    25   ar
    43    24    44    1
    44    25    26   ar
    45    25    45    1
    46    26    27   ar
    47    26    46    1
    48    27    28   ar
    49    27    47    1
    50    28    48    1
@<TRIPOS>SUBSTRUCTURE
     1 <0>         1 TEMP              0 ****  ****    0 ROOT


##########                                Name:    ZINC000863216249
##########                DOCK_Rotatable_Bonds:                   5
##########                         Heavy_Atoms:                  23
##########                    Molecular_Weight:             396.351
##########                DOCK_Rotatable_Bonds:                   5
##########                       Formal_Charge:         -0.00999944
##########                     HBond_Acceptors:                   5
##########                        HBond_Donors:                   1
##########                         Heavy_Atoms:                  23
##########                          Grid_Score:          -32.600677
##########                     Grid_vdw_energy:          -28.494589
##########                      Grid_es_energy:           -4.106089
##########           Internal_energy_repulsive:           29.059795

@<TRIPOS>MOLECULE
ZINC000863216249
 45 48 1 0 0
SMALL
USER_CHARGES


@<TRIPOS>ATOM
      1 S1        -15.0780   -0.0022   60.8020 S.2     1  ZINC000863216249   -0.5900
      2 C2        -13.7415   -1.0003   60.4170 C.2     1  ZINC000863216249    0.5600
      3 N3        -13.8665   -1.9632   59.4822 N.am    1  ZINC000863216249   -0.6800
      4 C4        -15.1479   -2.1595   58.7998 C.3     1  ZINC000863216249    0.1200
      5 C5        -15.1801   -3.5518   58.1661 C.3     1  ZINC000863216249    0.0400
      6 N6        -14.1560   -3.6358   57.1163 N.3     1  ZINC000863216249   -0.5300
      7 C7        -14.3290   -2.5645   56.1244 C.3     1  ZINC000863216249    0.0000
      8 C8        -13.2088   -2.6531   55.0847 C.3     1  ZINC000863216249    0.0600
      9 O9        -13.2220   -3.9521   54.4866 O.3     1  ZINC000863216249   -0.3800
     10 C10       -13.0553   -5.0193   55.4240 C.3     1  ZINC000863216249    0.0600
     11 C11       -14.1739   -4.9546   56.4671 C.3     1  ZINC000863216249    0.0200
     12 N12       -12.5625   -0.8197   61.0448 N.am    1  ZINC000863216249   -0.5100
     13 C13       -12.3049    0.1916   62.0761 C.3     1  ZINC000863216249    0.1200
     14 C14       -10.8375   -0.0094   62.4673 C.3     1  ZINC000863216249   -0.1100
     15 C15        -9.9374    1.1681   62.8211 C.3     1  ZINC000863216249   -0.1500
     16 C16       -10.3624    0.1720   63.9037 C.3     1  ZINC000863216249   -0.1500
     17 C17       -10.3518   -1.1489   61.6094 C.ar    1  ZINC000863216249   -0.0700
     18 C18        -9.1193   -1.7671   61.5238 C.ar    1  ZINC000863216249   -0.0800
     19 C19        -8.9244   -2.8112   60.6391 C.ar    1  ZINC000863216249   -0.1000
     20 C20        -9.9680   -3.2378   59.8374 C.ar    1  ZINC000863216249   -0.0700
     21 Br21       -9.7041   -4.6664   58.6268 Br      1  ZINC000863216249   -0.0400
     22 C22       -11.2009   -2.6239   59.9188 C.ar    1  ZINC000863216249   -0.0900
     23 C23       -11.4068   -1.5727   60.8131 C.ar    1  ZINC000863216249    0.1400
     24 H24       -13.1080   -2.5261   59.2613 H       1  ZINC000863216249    0.4000
     25 H25       -15.9608   -2.0693   59.5202 H       1  ZINC000863216249    0.0900
     26 H26       -15.2654   -1.4040   58.0230 H       1  ZINC000863216249    0.1000
     27 H27       -14.9800   -4.3032   58.9299 H       1  ZINC000863216249    0.0900
     28 H28       -16.1630   -3.7297   57.7300 H       1  ZINC000863216249    0.0400
     29 H29       -15.2940   -2.6784   55.6304 H       1  ZINC000863216249    0.0500
     30 H30       -14.2869   -1.5963   56.6233 H       1  ZINC000863216249    0.1000
     31 H31       -13.3653   -1.8967   54.3158 H       1  ZINC000863216249    0.1000
     32 H32       -12.2474   -2.4858   55.5704 H       1  ZINC000863216249    0.0600
     33 H33       -13.1006   -5.9741   54.9002 H       1  ZINC000863216249    0.1000
     34 H34       -12.0894   -4.9207   55.9195 H       1  ZINC000863216249    0.0600
     35 H35       -14.0186   -5.7312   57.2160 H       1  ZINC000863216249    0.0900
     36 H36       -15.1364   -5.1067   55.9785 H       1  ZINC000863216249    0.0500
     37 H37       -12.4558    1.1925   61.6718 H       1  ZINC000863216249    0.0900
     38 H38       -12.9526    0.0281   62.9375 H       1  ZINC000863216249    0.0900
     39 H39        -8.9025    1.1310   62.4809 H       1  ZINC000863216249    0.1100
     40 H40       -10.3903    2.1594   62.8432 H       1  ZINC000863216249    0.1100
     41 H41       -11.0949    0.5081   64.6377 H       1  ZINC000863216249    0.1100
     42 H42        -9.6071   -0.5203   64.2755 H       1  ZINC000863216249    0.1100
     43 H43        -8.3051   -1.4331   62.1498 H       1  ZINC000863216249    0.1400
     44 H44        -7.9598   -3.2926   60.5738 H       1  ZINC000863216249    0.1400
     45 H45       -12.0117   -2.9612   59.2900 H       1  ZINC000863216249    0.1900
@<TRIPOS>BOND
     1     1     2    2
     2     2     3   am
     3     2    12   am
     4     3     4    1
     5     3    24    1
     6     4     5    1
     7     4    25    1
     8     4    26    1
     9     5     6    1
    10     5    27    1
    11     5    28    1
    12     6    11    1
    13     6     7    1
    14     7     8    1
    15     7    29    1
    16     7    30    1
    17     8     9    1
    18     8    31    1
    19     8    32    1
    20     9    10    1
    21    10    11    1
    22    10    33    1
    23    10    34    1
    24    11    35    1
    25    11    36    1
    26    12    23    1
    27    12    13    1
    28    13    14    1
    29    13    37    1
    30    13    38    1
    31    14    16    1
    32    14    15    1
    33    14    17    1
    34    15    16    1
    35    15    39    1
    36    15    40    1
    37    16    41    1
    38    16    42    1
    39    17    23   ar
    40    17    18   ar
    41    18    19   ar
    42    18    43    1
    43    19    20   ar
    44    19    44    1
    45    20    21    1
    46    20    22   ar
    47    22    23   ar
    48    22    45    1
@<TRIPOS>SUBSTRUCTURE
     1 ZINC000863216249        1 TEMP              0 ****  ****    0 ROOT


##########                                Name:    ZINC000981048968
##########                DOCK_Rotatable_Bonds:                   7
##########                         Heavy_Atoms:                  25
##########                    Molecular_Weight:             344.414
##########                DOCK_Rotatable_Bonds:                   7
##########                       Formal_Charge:                0.02
##########                     HBond_Acceptors:                   7
##########                        HBond_Donors:                   2
##########                         Heavy_Atoms:                  25
##########                          Grid_Score:          -32.595898
##########                     Grid_vdw_energy:          -31.324965
##########                      Grid_es_energy:           -1.270931
##########           Internal_energy_repulsive:            6.688360

@<TRIPOS>MOLECULE
ZINC000981048968
 49 52 1 0 0
SMALL
USER_CHARGES


@<TRIPOS>ATOM
      1 C1        -15.1233    0.4083   66.7144 C.3     1  ZINC000981048968   -0.0800
      2 C2        -14.8496    0.8717   65.3068 C.2     1  ZINC000981048968   -0.0100
      3 C3        -14.8412    0.0881   64.2176 C.2     1  ZINC000981048968   -0.1600
      4 C4        -14.5307    0.9731   63.0854 C.2     1  ZINC000981048968   -0.2300
      5 C5        -14.4066    0.5944   61.6666 C.2     1  ZINC000981048968    0.5900
      6 O6        -13.9939    1.4013   60.8557 O.2     1  ZINC000981048968   -0.5300
      7 N7        -14.7505   -0.6463   61.2677 N.am    1  ZINC000981048968   -0.7300
      8 C8        -14.6287   -1.0222   59.8570 C.3     1  ZINC000981048968    0.1500
      9 H9        -13.8016   -0.4747   59.4051 H       1  ZINC000981048968    0.0900
     10 C10       -15.9276   -0.6801   59.1242 C.3     1  ZINC000981048968   -0.1300
     11 C11       -15.8006   -1.0727   57.6509 C.3     1  ZINC000981048968   -0.1200
     12 C12       -15.5357   -2.5759   57.5446 C.3     1  ZINC000981048968   -0.1100
     13 C13       -14.2369   -2.9180   58.2774 C.3     1  ZINC000981048968    0.1000
     14 H14       -13.4098   -2.3704   57.8255 H       1  ZINC000981048968    0.0500
     15 N15       -13.9827   -4.3611   58.1753 N.3     1  ZINC000981048968   -0.6800
     16 C16       -12.9707   -4.6462   57.1493 C.3     1  ZINC000981048968    0.1500
     17 C17       -11.5948   -4.4792   57.7407 C.2     1  ZINC000981048968    0.1800
     18 N18       -10.5524   -5.2106   57.4818 N.2     1  ZINC000981048968   -0.3800
     19 O19        -9.5966   -4.8196   58.1182 O.3     1  ZINC000981048968    0.0800
     20 C20        -9.9492   -3.7699   58.8662 C.2     1  ZINC000981048968    0.2100
     21 C21        -9.0570   -2.9927   59.7996 C.3     1  ZINC000981048968   -0.0800
     22 C22        -9.2980   -1.4863   59.9162 C.3     1  ZINC000981048968   -0.1600
     23 C23        -9.6919   -2.4154   61.0663 C.3     1  ZINC000981048968   -0.1500
     24 N24       -11.2186   -3.5421   58.6292 N.2     1  ZINC000981048968   -0.4600
     25 C25       -14.3640   -2.5254   59.7506 C.3     1  ZINC000981048968   -0.1300
     26 C26       -14.3825    2.2183   63.6226 C.2     1  ZINC000981048968    0.0200
     27 O27       -14.5811    2.1350   64.9417 O.3     1  ZINC000981048968   -0.1700
     28 H28       -15.0693    1.2589   67.3939 H       1  ZINC000981048968    0.0800
     29 H29       -16.1183   -0.0340   66.7644 H       1  ZINC000981048968    0.0900
     30 H30       -14.3803   -0.3351   67.0032 H       1  ZINC000981048968    0.0900
     31 H31       -15.0247   -0.9756   64.1802 H       1  ZINC000981048968    0.1600
     32 H32       -15.0784   -1.2903   61.9146 H       1  ZINC000981048968    0.4000
     33 H33       -16.7548   -1.2276   59.5760 H       1  ZINC000981048968    0.0700
     34 H34       -16.1162    0.3907   59.1999 H       1  ZINC000981048968    0.0700
     35 H35       -16.7258   -0.8289   57.1288 H       1  ZINC000981048968    0.0700
     36 H36       -14.9733   -0.5252   57.1990 H       1  ZINC000981048968    0.0600
     37 H37       -16.3628   -3.1233   57.9965 H       1  ZINC000981048968    0.0700
     38 H38       -15.4452   -2.8555   56.4950 H       1  ZINC000981048968    0.0700
     39 H39       -13.7103   -4.7443   59.0682 H       1  ZINC000981048968    0.3500
     40 H40       -13.0919   -5.6696   56.7942 H       1  ZINC000981048968    0.1100
     41 H41       -13.0941   -3.9552   56.3155 H       1  ZINC000981048968    0.0600
     42 H42        -8.0277   -3.3448   59.8680 H       1  ZINC000981048968    0.1500
     43 H43        -8.4272   -0.8471   60.0613 H       1  ZINC000981048968    0.1200
     44 H44       -10.1018   -1.0574   59.3179 H       1  ZINC000981048968    0.1100
     45 H45       -10.7547   -2.5977   61.2245 H       1  ZINC000981048968    0.1000
     46 H46        -9.0800   -2.3873   61.9680 H       1  ZINC000981048968    0.1200
     47 H47       -13.4387   -2.7691   60.2727 H       1  ZINC000981048968    0.0700
     48 H48       -15.1911   -3.0728   60.2026 H       1  ZINC000981048968    0.0800
     49 H49       -14.1481    3.1189   63.0746 H       1  ZINC000981048968    0.2100
@<TRIPOS>BOND
     1     1     2    1
     2     1    28    1
     3     1    29    1
     4     1    30    1
     5     2    27    1
     6     2     3    2
     7     3     4    1
     8     3    31    1
     9     4     5    1
    10     4    26    2
    11     5     6    2
    12     5     7   am
    13     7     8    1
    14     7    32    1
    15     8     9    1
    16     8    25    1
    17     8    10    1
    18    10    11    1
    19    10    33    1
    20    10    34    1
    21    11    12    1
    22    11    35    1
    23    11    36    1
    24    12    13    1
    25    12    37    1
    26    12    38    1
    27    13    14    1
    28    13    15    1
    29    13    25    1
    30    15    16    1
    31    15    39    1
    32    16    17    1
    33    16    40    1
    34    16    41    1
    35    17    24    1
    36    17    18    2
    37    18    19    1
    38    19    20    1
    39    20    21    1
    40    20    24    2
    41    21    23    1
    42    21    22    1
    43    21    42    1
    44    22    23    1
    45    22    43    1
    46    22    44    1
    47    23    45    1
    48    23    46    1
    49    25    47    1
    50    25    48    1
    51    26    27    1
    52    26    49    1
@<TRIPOS>SUBSTRUCTURE
     1 ZINC000981048968        1 TEMP              0 ****  ****    0 ROOT


##########                                Name:    ZINC000163855860
##########                DOCK_Rotatable_Bonds:                   6
##########                         Heavy_Atoms:                  28
##########                    Molecular_Weight:             398.483
##########                DOCK_Rotatable_Bonds:                   6
##########                       Formal_Charge:          -0.0100004
##########                     HBond_Acceptors:                   7
##########                        HBond_Donors:                   1
##########                         Heavy_Atoms:                  28
##########                          Grid_Score:          -32.590034
##########                     Grid_vdw_energy:          -26.530214
##########                      Grid_es_energy:           -6.059819
##########           Internal_energy_repulsive:           15.937142

@<TRIPOS>MOLECULE
ZINC000163855860
 50 53 1 0 0
SMALL
USER_CHARGES


@<TRIPOS>ATOM
      1 C1         -9.5240   -0.4752   61.0575 C.3     1  ZINC000163855860   -0.1300
      2 C2        -10.2661    0.6174   60.3318 C.ar    1  ZINC000163855860   -0.0600
      3 C3        -10.4096    1.8664   60.9152 C.ar    1  ZINC000163855860    0.1400
      4 N4         -9.8644    2.1148   62.1800 N.am    1  ZINC000163855860   -0.6700
      5 C5        -10.6759    2.2758   63.2440 C.2     1  ZINC000163855860    0.5100
      6 O6        -11.8787    2.2053   63.1053 O.2     1  ZINC000163855860   -0.5100
      7 C7        -10.0888    2.5432   64.6058 C.3     1  ZINC000163855860   -0.1300
      8 C8         -9.7932    1.2141   65.3037 C.3     1  ZINC000163855860   -0.1100
      9 H9        -10.6823    0.5843   65.3344 H       1  ZINC000163855860    0.1100
     10 C10        -8.6212    0.4790   64.6143 C.3     1  ZINC000163855860    0.0600
     11 O11        -7.9169   -0.1856   65.7048 O.3     1  ZINC000163855860   -0.3500
     12 C12        -8.0405    0.5305   66.8314 C.2     1  ZINC000163855860    0.4800
     13 O13        -7.3066    0.4526   67.7881 O.2     1  ZINC000163855860   -0.4500
     14 C14        -9.2371    1.4508   66.7255 C.3     1  ZINC000163855860   -0.1800
     15 C15       -11.0900    2.8741   60.2416 C.ar    1  ZINC000163855860   -0.1100
     16 C16       -11.6294    2.6341   58.9920 C.ar    1  ZINC000163855860   -0.1100
     17 C17       -11.4961    1.3922   58.4045 C.ar    1  ZINC000163855860   -0.1000
     18 C18       -10.8151    0.3736   59.0729 C.ar    1  ZINC000163855860   -0.1100
     19 C19       -10.6704   -0.9576   58.4456 C.2     1  ZINC000163855860    0.5700
     20 O20        -9.8222   -1.1392   57.5942 O.2     1  ZINC000163855860   -0.5300
     21 N21       -11.4789   -1.9695   58.8180 N.am    1  ZINC000163855860   -0.6100
     22 C22       -12.5116   -1.7712   59.8462 C.3     1  ZINC000163855860    0.1200
     23 C23       -13.8887   -1.9503   59.1881 C.3     1  ZINC000163855860   -0.0600
     24 C24       -13.8630   -3.1885   58.3174 C.2     1  ZINC000163855860   -0.1700
     25 C25       -12.7484   -3.7980   57.8709 C.2     1  ZINC000163855860   -0.1300
     26 C26       -12.9977   -4.9134   57.0775 C.2     1  ZINC000163855860   -0.1200
     27 C27       -14.2796   -5.2084   56.8861 C.2     1  ZINC000163855860   -0.2100
     28 S28       -15.2854   -4.0424   57.7325 S.3     1  ZINC000163855860    0.1100
     29 C29       -11.3479   -3.3018   58.2115 C.3     1  ZINC000163855860    0.1700
     30 H30       -10.2348   -1.0991   61.5995 H       1  ZINC000163855860    0.0700
     31 H31        -8.9803   -1.0858   60.3367 H       1  ZINC000163855860    0.0900
     32 H32        -8.8202   -0.0308   61.7613 H       1  ZINC000163855860    0.0700
     33 H33        -8.9023    2.1711   62.2909 H       1  ZINC000163855860    0.4100
     34 H34       -10.7992    3.1163   65.2017 H       1  ZINC000163855860    0.1100
     35 H35        -9.1643    3.1104   64.4980 H       1  ZINC000163855860    0.1100
     36 H36        -7.9648    1.1924   64.1160 H       1  ZINC000163855860    0.0800
     37 H37        -8.9984   -0.2547   63.9019 H       1  ZINC000163855860    0.1200
     38 H38        -9.9849    1.1885   67.4739 H       1  ZINC000163855860    0.1200
     39 H39        -8.9285    2.4895   66.8442 H       1  ZINC000163855860    0.1200
     40 H40       -11.1971    3.8479   60.6961 H       1  ZINC000163855860    0.1500
     41 H41       -12.1566    3.4210   58.4733 H       1  ZINC000163855860    0.1300
     42 H42       -11.9191    1.2086   57.4279 H       1  ZINC000163855860    0.1300
     43 H43       -12.3841   -2.5075   60.6397 H       1  ZINC000163855860    0.0800
     44 H44       -12.4286   -0.7659   60.2592 H       1  ZINC000163855860    0.1000
     45 H45       -14.1182   -1.0785   58.5755 H       1  ZINC000163855860    0.0900
     46 H46       -14.6496   -2.0636   59.9604 H       1  ZINC000163855860    0.0900
     47 H47       -12.2015   -5.5011   56.6450 H       1  ZINC000163855860    0.1400
     48 H48       -14.6468   -6.0384   56.3005 H       1  ZINC000163855860    0.1700
     49 H49       -10.7483   -3.2368   57.3035 H       1  ZINC000163855860    0.1000
     50 H50       -10.8751   -3.9842   58.9179 H       1  ZINC000163855860    0.0900
@<TRIPOS>BOND
     1     1     2    1
     2     1    30    1
     3     1    31    1
     4     1    32    1
     5     2    18   ar
     6     2     3   ar
     7     3     4    1
     8     3    15   ar
     9     4     5   am
    10     4    33    1
    11     5     6    2
    12     5     7    1
    13     7     8    1
    14     7    34    1
    15     7    35    1
    16     8     9    1
    17     8    14    1
    18     8    10    1
    19    10    11    1
    20    10    36    1
    21    10    37    1
    22    11    12    1
    23    12    13    2
    24    12    14    1
    25    14    38    1
    26    14    39    1
    27    15    16   ar
    28    15    40    1
    29    16    17   ar
    30    16    41    1
    31    17    18   ar
    32    17    42    1
    33    18    19    1
    34    19    20    2
    35    19    21   am
    36    21    29    1
    37    21    22    1
    38    22    23    1
    39    22    43    1
    40    22    44    1
    41    23    24    1
    42    23    45    1
    43    23    46    1
    44    24    28    1
    45    24    25    2
    46    25    26    1
    47    25    29    1
    48    26    27    2
    49    26    47    1
    50    27    28    1
    51    27    48    1
    52    29    49    1
    53    29    50    1
@<TRIPOS>SUBSTRUCTURE
     1 ZINC000163855860        1 TEMP              0 ****  ****    0 ROOT


##########                                Name:    ZINC000541568816
##########                DOCK_Rotatable_Bonds:                   8
##########                         Heavy_Atoms:                  25
##########                    Molecular_Weight:             411.339
##########                DOCK_Rotatable_Bonds:                   8
##########                       Formal_Charge:          -0.0100007
##########                     HBond_Acceptors:                   5
##########                        HBond_Donors:                   1
##########                         Heavy_Atoms:                  25
##########                          Grid_Score:          -32.582447
##########                     Grid_vdw_energy:          -32.810638
##########                      Grid_es_energy:            0.228193
##########           Internal_energy_repulsive:           19.986279

@<TRIPOS>MOLECULE
ZINC000541568816
 52 54 1 0 0
SMALL
USER_CHARGES


@<TRIPOS>ATOM
      1 C1        -15.5040   -3.4179   60.1382 C.3     1  ZINC000541568816   -0.1500
      2 C2        -14.7493   -2.3883   59.2948 C.3     1  ZINC000541568816    0.0600
      3 O3        -13.3921   -2.8062   59.1351 O.3     1  ZINC000541568816   -0.3700
      4 C4        -12.8341   -2.4926   57.8575 C.3     1  ZINC000541568816    0.0700
      5 H5        -13.2216   -1.5622   57.4427 H       1  ZINC000541568816    0.0900
      6 C6        -12.8624   -3.6692   56.8660 C.3     1  ZINC000541568816   -0.1700
      7 C7        -11.4546   -3.2322   56.4245 C.3     1  ZINC000541568816    0.1500
      8 H8        -10.7733   -4.0648   56.2493 H       1  ZINC000541568816    0.1100
      9 N9        -11.4579   -2.2590   55.3295 N.am    1  ZINC000541568816   -0.7200
     10 C10       -11.8124   -2.6435   54.0873 C.2     1  ZINC000541568816    0.7100
     11 O11       -12.1308   -3.7977   53.8759 O.2     1  ZINC000541568816   -0.5800
     12 N12       -11.8139   -1.7485   53.0796 N.am    1  ZINC000541568816   -0.6300
     13 C13       -12.1975   -2.1668   51.7290 C.3     1  ZINC000541568816    0.1000
     14 C14       -13.4444   -1.3958   51.2911 C.3     1  ZINC000541568816   -0.1800
     15 C15       -11.4319   -0.3574   53.3348 C.3     1  ZINC000541568816    0.1700
     16 C16       -10.0622   -0.0994   52.7619 C.ar    1  ZINC000541568816   -0.0700
     17 C17        -9.1858   -1.1498   52.5662 C.ar    1  ZINC000541568816   -0.1000
     18 C18        -7.9291   -0.9132   52.0405 C.ar    1  ZINC000541568816   -0.1000
     19 C19        -7.5489    0.3740   51.7100 C.ar    1  ZINC000541568816   -0.1200
     20 C20        -8.4248    1.4254   51.9055 C.ar    1  ZINC000541568816   -0.0900
     21 C21        -9.6840    1.1884   52.4265 C.ar    1  ZINC000541568816   -0.0900
     22 Br22      -10.8827    2.6263   52.6941 Br      1  ZINC000541568816   -0.0500
     23 C23       -11.3062   -2.5960   57.8124 C.3     1  ZINC000541568816    0.0800
     24 C24       -10.6956   -3.5213   58.8792 C.3     1  ZINC000541568816   -0.1200
     25 C25        -9.2928   -2.8874   59.0941 C.3     1  ZINC000541568816   -0.1600
     26 C26        -9.6110   -1.3853   58.8824 C.3     1  ZINC000541568816    0.0500
     27 O27       -10.6057   -1.3541   57.8439 O.3     1  ZINC000541568816   -0.3600
     28 H28       -15.4785   -4.3861   59.6382 H       1  ZINC000541568816    0.0600
     29 H29       -15.0320   -3.5019   61.1171 H       1  ZINC000541568816    0.0600
     30 H30       -16.5392   -3.0991   60.2601 H       1  ZINC000541568816    0.0700
     31 H31       -15.2213   -2.3043   58.3159 H       1  ZINC000541568816    0.0500
     32 H32       -14.7749   -1.4200   59.7948 H       1  ZINC000541568816    0.0500
     33 H33       -12.8847   -4.6462   57.3488 H       1  ZINC000541568816    0.1000
     34 H34       -13.6165   -3.5645   56.0859 H       1  ZINC000541568816    0.0800
     35 H35       -11.2050   -1.3379   55.4985 H       1  ZINC000541568816    0.4000
     36 H36       -11.3804   -1.9586   51.0383 H       1  ZINC000541568816    0.0900
     37 H37       -12.4118   -3.2355   51.7268 H       1  ZINC000541568816    0.0700
     38 H38       -13.2302   -0.3270   51.2934 H       1  ZINC000541568816    0.0600
     39 H39       -13.7298   -1.7070   50.2863 H       1  ZINC000541568816    0.0700
     40 H40       -14.2615   -1.6039   51.9819 H       1  ZINC000541568816    0.0600
     41 H41       -12.1542    0.3098   52.8644 H       1  ZINC000541568816    0.1000
     42 H42       -11.4163   -0.1763   54.4096 H       1  ZINC000541568816    0.1100
     43 H43        -9.4825   -2.1557   52.8242 H       1  ZINC000541568816    0.1300
     44 H44        -7.2442   -1.7343   51.8883 H       1  ZINC000541568816    0.1300
     45 H45        -6.5671    0.5584   51.2995 H       1  ZINC000541568816    0.1300
     46 H46        -8.1276    2.4312   51.6476 H       1  ZINC000541568816    0.1300
     47 H47       -11.2801   -3.4938   59.7988 H       1  ZINC000541568816    0.1000
     48 H48       -10.6085   -4.5416   58.5055 H       1  ZINC000541568816    0.0900
     49 H49        -8.9287   -3.0731   60.1046 H       1  ZINC000541568816    0.0900
     50 H50        -8.5816   -3.2466   58.3504 H       1  ZINC000541568816    0.0800
     51 H51       -10.0080   -0.9499   59.7994 H       1  ZINC000541568816    0.0600
     52 H52        -8.7160   -0.8501   58.5652 H       1  ZINC000541568816    0.0900
@<TRIPOS>BOND
     1     1     2    1
     2     1    28    1
     3     1    29    1
     4     1    30    1
     5     2     3    1
     6     2    31    1
     7     2    32    1
     8     3     4    1
     9     4     5    1
    10     4    23    1
    11     4     6    1
    12     6     7    1
    13     6    33    1
    14     6    34    1
    15     7     8    1
    16     7     9    1
    17     7    23    1
    18     9    10   am
    19     9    35    1
    20    10    11    2
    21    10    12   am
    22    12    13    1
    23    12    15    1
    24    13    14    1
    25    13    36    1
    26    13    37    1
    27    14    38    1
    28    14    39    1
    29    14    40    1
    30    15    16    1
    31    15    41    1
    32    15    42    1
    33    16    21   ar
    34    16    17   ar
    35    17    18   ar
    36    17    43    1
    37    18    19   ar
    38    18    44    1
    39    19    20   ar
    40    19    45    1
    41    20    21   ar
    42    20    46    1
    43    21    22    1
    44    23    27    1
    45    23    24    1
    46    24    25    1
    47    24    47    1
    48    24    48    1
    49    25    26    1
    50    25    49    1
    51    25    50    1
    52    26    27    1
    53    26    51    1
    54    26    52    1
@<TRIPOS>SUBSTRUCTURE
     1 ZINC000541568816        1 TEMP              0 ****  ****    0 ROOT


##########                                Name:    ZINC000579444893
##########                DOCK_Rotatable_Bonds:                   8
##########                         Heavy_Atoms:                  26
##########                    Molecular_Weight:             365.494
##########                DOCK_Rotatable_Bonds:                   8
##########                       Formal_Charge:         -0.00999993
##########                     HBond_Acceptors:                   7
##########                        HBond_Donors:                   1
##########                         Heavy_Atoms:                  26
##########                          Grid_Score:          -32.579472
##########                     Grid_vdw_energy:          -32.558304
##########                      Grid_es_energy:           -0.021169
##########           Internal_energy_repulsive:           33.682903

@<TRIPOS>MOLECULE
ZINC000579444893
 58 60 1 0 0
SMALL
USER_CHARGES


@<TRIPOS>ATOM
      1 C1        -14.0621   -5.3621   55.1842 C.3     1  ZINC000579444893   -0.1600
      2 C2        -13.5577   -3.9334   55.3975 C.3     1  ZINC000579444893    0.1700
      3 H3        -14.3297   -3.3459   55.8943 H       1  ZINC000579444893    0.0900
      4 N4        -12.3528   -3.9602   56.2303 N.am    1  ZINC000579444893   -0.7400
      5 C5        -12.3017   -3.2355   57.3654 C.2     1  ZINC000579444893    0.7100
      6 O6        -13.2554   -2.5581   57.6975 O.2     1  ZINC000579444893   -0.5900
      7 N7        -11.1938   -3.2614   58.1323 N.am    1  ZINC000579444893   -0.6300
      8 C8        -10.0443   -4.0761   57.7312 C.3     1  ZINC000579444893    0.0800
      9 C9        -11.1391   -2.4750   59.3671 C.3     1  ZINC000579444893    0.1100
     10 C10       -11.2106   -0.9851   59.0264 C.3     1  ZINC000579444893    0.0600
     11 H11       -12.1770   -0.7531   58.5789 H       1  ZINC000579444893    0.1000
     12 C12       -10.0764   -0.6154   58.0475 C.3     1  ZINC000579444893   -0.1600
     13 C13        -9.6314    0.7864   58.5414 C.3     1  ZINC000579444893    0.0800
     14 H14       -10.2840    1.5649   58.1464 H       1  ZINC000579444893    0.1000
     15 F15        -8.2967    1.0361   58.2043 F       1  ZINC000579444893   -0.2000
     16 C16        -9.8003    0.6460   60.0748 C.3     1  ZINC000579444893    0.0200
     17 N17       -11.0174   -0.1814   60.2475 N.3     1  ZINC000579444893   -0.5000
     18 C18       -10.9048   -1.0428   61.4321 C.3     1  ZINC000579444893    0.1000
     19 C19       -10.8078   -0.1866   62.6684 C.2     1  ZINC000579444893    0.0800
     20 C20        -9.6658    0.2364   63.2582 C.2     1  ZINC000579444893   -0.2500
     21 C21       -10.0163    1.0038   64.3739 C.2     1  ZINC000579444893    0.0400
     22 N22       -11.3219    1.0401   64.4511 N.2     1  ZINC000579444893   -0.2900
     23 N23       -11.8442    0.3004   63.3823 N.pl3   1  ZINC000579444893   -0.3700
     24 C24       -13.2648    0.0856   63.0956 C.3     1  ZINC000579444893    0.0900
     25 C25       -13.2281   -3.3014   54.0436 C.3     1  ZINC000579444893   -0.1000
     26 C26       -12.6959   -1.8593   54.2338 C.3     1  ZINC000579444893   -0.1200
     27 C27       -11.8779   -1.6235   52.9398 C.3     1  ZINC000579444893   -0.1300
     28 C28       -11.2019   -2.9828   52.6666 C.3     1  ZINC000579444893   -0.1300
     29 C29       -12.0603   -4.0497   53.3684 C.3     1  ZINC000579444893   -0.1200
     30 H30       -14.2095   -5.8435   56.1508 H       1  ZINC000579444893    0.0600
     31 H31       -15.0080   -5.3364   54.6430 H       1  ZINC000579444893    0.0700
     32 H32       -13.3282   -5.9240   54.6065 H       1  ZINC000579444893    0.0500
     33 H33       -11.5916   -4.4996   55.9647 H       1  ZINC000579444893    0.4000
     34 H34        -9.4258   -3.5127   57.0325 H       1  ZINC000579444893    0.0600
     35 H35        -9.4557   -4.3327   58.6121 H       1  ZINC000579444893    0.0800
     36 H36       -10.3959   -4.9890   57.2506 H       1  ZINC000579444893    0.0700
     37 H37       -11.9809   -2.7424   60.0058 H       1  ZINC000579444893    0.0900
     38 H38       -10.2057   -2.6837   59.8898 H       1  ZINC000579444893    0.0900
     39 H39        -9.2555   -1.3286   58.1216 H       1  ZINC000579444893    0.1100
     40 H40       -10.4514   -0.5627   57.0254 H       1  ZINC000579444893    0.0800
     41 H41        -8.9346    0.1447   60.5077 H       1  ZINC000579444893    0.0600
     42 H42        -9.9409    1.6252   60.5323 H       1  ZINC000579444893    0.0900
     43 H43       -11.7847   -1.6825   61.5012 H       1  ZINC000579444893    0.1100
     44 H44       -10.0114   -1.6616   61.3477 H       1  ZINC000579444893    0.0500
     45 H45        -8.6611    0.0196   62.9264 H       1  ZINC000579444893    0.1500
     46 H46        -9.3281    1.4830   65.0544 H       1  ZINC000579444893    0.1800
     47 H47       -13.6142    0.8479   62.3993 H       1  ZINC000579444893    0.0800
     48 H48       -13.4010   -0.9009   62.6526 H       1  ZINC000579444893    0.0800
     49 H49       -13.8362    0.1501   64.0216 H       1  ZINC000579444893    0.0900
     50 H50       -14.1067   -3.3040   53.3984 H       1  ZINC000579444893    0.0800
     51 H51       -13.5201   -1.1495   54.3046 H       1  ZINC000579444893    0.0700
     52 H52       -12.0546   -1.7970   55.1129 H       1  ZINC000579444893    0.0700
     53 H53       -12.5377   -1.3530   52.1154 H       1  ZINC000579444893    0.0700
     54 H54       -11.1274   -0.8492   53.0987 H       1  ZINC000579444893    0.0700
     55 H55       -11.1702   -3.1753   51.5942 H       1  ZINC000579444893    0.0600
     56 H56       -10.1921   -2.9869   53.0771 H       1  ZINC000579444893    0.0600
     57 H57       -11.4672   -4.5714   54.1195 H       1  ZINC000579444893    0.0600
     58 H58       -12.4453   -4.7599   52.6366 H       1  ZINC000579444893    0.0600
@<TRIPOS>BOND
     1     1     2    1
     2     1    30    1
     3     1    31    1
     4     1    32    1
     5     2     3    1
     6     2     4    1
     7     2    25    1
     8     4     5   am
     9     4    33    1
    10     5     6    2
    11     5     7   am
    12     7     8    1
    13     7     9    1
    14     8    34    1
    15     8    35    1
    16     8    36    1
    17     9    10    1
    18     9    37    1
    19     9    38    1
    20    10    11    1
    21    10    17    1
    22    10    12    1
    23    12    13    1
    24    12    39    1
    25    12    40    1
    26    13    14    1
    27    13    15    1
    28    13    16    1
    29    16    17    1
    30    16    41    1
    31    16    42    1
    32    17    18    1
    33    18    19    1
    34    18    43    1
    35    18    44    1
    36    19    23    1
    37    19    20    2
    38    20    21    1
    39    20    45    1
    40    21    22    2
    41    21    46    1
    42    22    23    1
    43    23    24    1
    44    24    47    1
    45    24    48    1
    46    24    49    1
    47    25    29    1
    48    25    26    1
    49    25    50    1
    50    26    27    1
    51    26    51    1
    52    26    52    1
    53    27    28    1
    54    27    53    1
    55    27    54    1
    56    28    29    1
    57    28    55    1
    58    28    56    1
    59    29    57    1
    60    29    58    1
@<TRIPOS>SUBSTRUCTURE
     1 ZINC000579444893        1 TEMP              0 ****  ****    0 ROOT


##########                                Name:    ZINC001169875900
##########                DOCK_Rotatable_Bonds:                   9
##########                         Heavy_Atoms:                  24
##########                    Molecular_Weight:             329.399
##########                DOCK_Rotatable_Bonds:                   9
##########                       Formal_Charge:          -0.0500002
##########                     HBond_Acceptors:                   6
##########                        HBond_Donors:                   1
##########                         Heavy_Atoms:                  24
##########                          Grid_Score:          -32.576965
##########                     Grid_vdw_energy:          -32.042549
##########                      Grid_es_energy:           -0.534415
##########           Internal_energy_repulsive:            7.389778

@<TRIPOS>MOLECULE
ZINC001169875900
 47 48 1 0 0
SMALL
USER_CHARGES


@<TRIPOS>ATOM
      1 C1         -6.9838    1.6942   50.3852 C.3     1  ZINC001169875900   -0.1500
      2 C2         -6.4676    0.8318   51.5387 C.3     1  ZINC001169875900   -0.1300
      3 C3         -7.3960   -0.3686   51.7333 C.3     1  ZINC001169875900    0.0700
      4 O4         -8.7121    0.0928   52.0449 O.3     1  ZINC001169875900   -0.3100
      5 C5         -9.5201   -0.7615   52.7239 C.ar    1  ZINC001169875900    0.2700
      6 N6         -9.8415   -1.9246   52.1841 N.ar    1  ZINC001169875900   -0.5000
      7 C7        -10.6284   -2.7836   52.8042 C.ar    1  ZINC001169875900    0.0600
      8 C8        -11.1446   -2.4942   54.0582 C.ar    1  ZINC001169875900    0.1400
      9 N9        -11.9791   -3.4098   54.7101 N.pl3   1  ZINC001169875900   -0.7400
     10 C10       -13.3112   -3.6977   54.1729 C.3     1  ZINC001169875900    0.1800
     11 C11       -14.3251   -2.8023   54.8374 C.ar    1  ZINC001169875900    0.1000
     12 C12       -15.0057   -1.8615   54.0810 C.ar    1  ZINC001169875900   -0.1200
     13 C13       -15.9374   -1.0398   54.6963 C.ar    1  ZINC001169875900   -0.0800
     14 C14       -16.1558   -1.1907   56.0565 C.ar    1  ZINC001169875900   -0.1000
     15 C15       -15.4352   -2.1578   56.7545 C.ar    1  ZINC001169875900    0.0900
     16 C16       -15.6568   -2.3316   58.2082 C.2     1  ZINC001169875900    0.5200
     17 O17       -16.3773   -1.5607   58.8090 O.2     1  ZINC001169875900   -0.5000
     18 O18       -15.0593   -3.3449   58.8640 O.3     1  ZINC001169875900   -0.3300
     19 C19       -15.0778   -3.2928   60.3149 C.3     1  ZINC001169875900    0.0600
     20 C20       -14.0232   -2.2975   60.8030 C.3     1  ZINC001169875900   -0.1500
     21 N21       -14.5555   -2.9281   56.1259 N.ar    1  ZINC001169875900   -0.4200
     22 C22       -10.8223   -1.2795   54.6611 C.ar    1  ZINC001169875900   -0.1200
     23 C23        -9.9945   -0.4053   53.9797 C.ar    1  ZINC001169875900   -0.1000
     24 C24        -9.6173    0.9201   54.5898 C.3     1  ZINC001169875900   -0.1000
     25 H25        -7.9892    2.0462   50.6164 H       1  ZINC001169875900    0.0600
     26 H26        -6.3223    2.5493   50.2466 H       1  ZINC001169875900    0.0600
     27 H27        -7.0077    1.1014   49.4708 H       1  ZINC001169875900    0.0600
     28 H28        -6.4436    1.4246   52.4531 H       1  ZINC001169875900    0.0700
     29 H29        -5.4622    0.4798   51.3075 H       1  ZINC001169875900    0.0700
     30 H30        -7.0246   -0.9865   52.5509 H       1  ZINC001169875900    0.0600
     31 H31        -7.4251   -0.9578   50.8168 H       1  ZINC001169875900    0.0600
     32 H32       -10.8733   -3.7223   52.3295 H       1  ZINC001169875900    0.1500
     33 H33       -11.6752   -3.8535   55.5173 H       1  ZINC001169875900    0.4000
     34 H34       -13.3165   -3.5174   53.0979 H       1  ZINC001169875900    0.0800
     35 H35       -13.5641   -4.7400   54.3677 H       1  ZINC001169875900    0.0800
     36 H36       -14.8118   -1.7691   53.0226 H       1  ZINC001169875900    0.1500
     37 H37       -16.4809   -0.2992   54.1284 H       1  ZINC001169875900    0.1500
     38 H38       -16.8742   -0.5674   56.5683 H       1  ZINC001169875900    0.1500
     39 H39       -16.0632   -2.9738   60.6545 H       1  ZINC001169875900    0.0700
     40 H40       -14.8576   -4.2817   60.7168 H       1  ZINC001169875900    0.0700
     41 H41       -13.0378   -2.6165   60.4634 H       1  ZINC001169875900    0.0700
     42 H42       -14.2435   -1.3086   60.4011 H       1  ZINC001169875900    0.0700
     43 H43       -14.0371   -2.2584   61.8922 H       1  ZINC001169875900    0.0800
     44 H44       -11.2097   -1.0267   55.6370 H       1  ZINC001169875900    0.1400
     45 H45        -8.7052    0.8040   55.1753 H       1  ZINC001169875900    0.0700
     46 H46       -10.4235    1.2646   55.2374 H       1  ZINC001169875900    0.0700
     47 H47        -9.4502    1.6502   53.7978 H       1  ZINC001169875900    0.0700
@<TRIPOS>BOND
     1     1     2    1
     2     1    25    1
     3     1    26    1
     4     1    27    1
     5     2     3    1
     6     2    28    1
     7     2    29    1
     8     3     4    1
     9     3    30    1
    10     3    31    1
    11     4     5    1
    12     5    23   ar
    13     5     6   ar
    14     6     7   ar
    15     7     8   ar
    16     7    32    1
    17     8     9    1
    18     8    22   ar
    19     9    10    1
    20     9    33    1
    21    10    11    1
    22    10    34    1
    23    10    35    1
    24    11    21   ar
    25    11    12   ar
    26    12    13   ar
    27    12    36    1
    28    13    14   ar
    29    13    37    1
    30    14    15   ar
    31    14    38    1
    32    15    16    1
    33    15    21   ar
    34    16    17    2
    35    16    18    1
    36    18    19    1
    37    19    20    1
    38    19    39    1
    39    19    40    1
    40    20    41    1
    41    20    42    1
    42    20    43    1
    43    22    23   ar
    44    22    44    1
    45    23    24    1
    46    24    45    1
    47    24    46    1
    48    24    47    1
@<TRIPOS>SUBSTRUCTURE
     1 ZINC001169875900        1 TEMP              0 ****  ****    0 ROOT


##########                                Name:    ZINC000486710336
##########                DOCK_Rotatable_Bonds:                   6
##########                         Heavy_Atoms:                  31
##########                    Molecular_Weight:             420.555
##########                DOCK_Rotatable_Bonds:                   6
##########                       Formal_Charge:         1.49012e-07
##########                     HBond_Acceptors:                   6
##########                        HBond_Donors:                   1
##########                         Heavy_Atoms:                  31
##########                          Grid_Score:          -32.574509
##########                     Grid_vdw_energy:          -31.361803
##########                      Grid_es_energy:           -1.212705
##########           Internal_energy_repulsive:           48.510456

@<TRIPOS>MOLECULE
ZINC000486710336
 63 67 1 0 0
SMALL
USER_CHARGES


@<TRIPOS>ATOM
      1 C1         -9.7998   -2.7980   60.4048 C.3     1  ZINC000486710336    0.1000
      2 N2        -10.2647   -1.7165   61.2768 N.pl3   1  ZINC000486710336   -0.3900
      3 N3         -9.4598   -0.9075   62.0889 N.2     1  ZINC000486710336   -0.2800
      4 C4        -10.2297   -0.0567   62.7178 C.2     1  ZINC000486710336    0.1000
      5 C5         -9.7679    0.9956   63.6926 C.3     1  ZINC000486710336   -0.0100
      6 C6        -10.9158    1.3811   64.6584 C.3     1  ZINC000486710336   -0.1200
      7 C7        -10.1558    1.9418   65.8861 C.3     1  ZINC000486710336   -0.1200
      8 C8         -8.9162    1.0322   66.0115 C.3     1  ZINC000486710336   -0.1200
      9 C9         -8.6696    0.4306   64.6168 C.3     1  ZINC000486710336   -0.1100
     10 C10       -11.5524   -0.2888   62.3328 C.2     1  ZINC000486710336   -0.2600
     11 C11       -11.5527   -1.3156   61.4376 C.2     1  ZINC000486710336    0.3000
     12 N12       -12.6692   -1.8594   60.8087 N.am    1  ZINC000486710336   -0.6200
     13 C13       -13.0350   -1.4213   59.5878 C.2     1  ZINC000486710336    0.5100
     14 O14       -12.3918   -0.5515   59.0371 O.2     1  ZINC000486710336   -0.4800
     15 C15       -14.2315   -2.0058   58.9125 C.2     1  ZINC000486710336    0.5300
     16 O16       -15.3119   -1.9823   59.4648 O.2     1  ZINC000486710336   -0.5100
     17 N17       -14.1118   -2.5597   57.6896 N.am    1  ZINC000486710336   -0.5800
     18 C18       -12.8695   -2.6640   56.9032 C.3     1  ZINC000486710336    0.1000
     19 C19       -13.2346   -3.3369   55.5614 C.3     1  ZINC000486710336   -0.0600
     20 H20       -13.0506   -4.4105   55.6047 H       1  ZINC000486710336    0.1000
     21 C21       -12.4696   -2.7110   54.4239 C.ar    1  ZINC000486710336   -0.0700
     22 C22       -11.3275   -1.9758   54.6808 C.ar    1  ZINC000486710336   -0.1100
     23 C23       -10.6258   -1.4017   53.6373 C.ar    1  ZINC000486710336   -0.1200
     24 C24       -11.0659   -1.5632   52.3369 C.ar    1  ZINC000486710336   -0.1200
     25 C25       -12.2075   -2.2991   52.0799 C.ar    1  ZINC000486710336   -0.1200
     26 C26       -12.9068   -2.8768   53.1230 C.ar    1  ZINC000486710336   -0.1100
     27 C27       -14.7609   -3.0421   55.4354 C.3     1  ZINC000486710336   -0.0800
     28 H28       -15.2754   -3.7513   54.7871 H       1  ZINC000486710336    0.1100
     29 C29       -14.8877   -1.6001   54.9396 C.3     1  ZINC000486710336   -0.1100
     30 C30       -16.3012   -1.0720   55.1728 C.3     1  ZINC000486710336   -0.1200
     31 C31       -16.5826   -1.0721   56.6792 C.3     1  ZINC000486710336   -0.1100
     32 C32       -16.5374   -2.5161   57.1791 C.3     1  ZINC000486710336   -0.1400
     33 C33       -15.1922   -3.1698   56.9104 C.3     1  ZINC000486710336    0.1400
     34 H34       -15.2563   -4.2224   57.1865 H       1  ZINC000486710336    0.0800
     35 H35        -9.5723   -2.3962   59.4174 H       1  ZINC000486710336    0.0800
     36 H36        -8.9024   -3.2473   60.8299 H       1  ZINC000486710336    0.1000
     37 H37       -10.5791   -3.5552   60.3180 H       1  ZINC000486710336    0.0800
     38 H38        -9.4035    1.8741   63.1600 H       1  ZINC000486710336    0.0900
     39 H39       -11.5525    2.1470   64.2154 H       1  ZINC000486710336    0.0700
     40 H40       -11.5002    0.5032   64.9338 H       1  ZINC000486710336    0.0800
     41 H41        -9.8549    2.9745   65.7095 H       1  ZINC000486710336    0.0700
     42 H42       -10.7731    1.8712   66.7817 H       1  ZINC000486710336    0.0700
     43 H43        -8.0522    1.6193   66.3230 H       1  ZINC000486710336    0.0600
     44 H44        -9.1077    0.2374   66.7324 H       1  ZINC000486710336    0.0600
     45 H45        -8.7413   -0.6562   64.6611 H       1  ZINC000486710336    0.0700
     46 H46        -7.6859    0.7256   64.2516 H       1  ZINC000486710336    0.0700
     47 H47       -12.4200    0.2523   62.6801 H       1  ZINC000486710336    0.1700
     48 H48       -13.1838   -2.5536   61.2492 H       1  ZINC000486710336    0.4200
     49 H49       -12.4613   -1.6699   56.7205 H       1  ZINC000486710336    0.0900
     50 H50       -12.1417   -3.2739   57.4382 H       1  ZINC000486710336    0.0800
     51 H51       -10.9838   -1.8497   55.6968 H       1  ZINC000486710336    0.1200
     52 H52        -9.7339   -0.8268   53.8382 H       1  ZINC000486710336    0.1200
     53 H53       -10.5180   -1.1140   51.5217 H       1  ZINC000486710336    0.1200
     54 H54       -12.5515   -2.4249   51.0639 H       1  ZINC000486710336    0.1200
     55 H55       -13.7987   -3.4518   52.9222 H       1  ZINC000486710336    0.1200
     56 H56       -14.1766   -0.9720   55.4763 H       1  ZINC000486710336    0.0700
     57 H57       -14.6629   -1.5658   53.8736 H       1  ZINC000486710336    0.0700
     58 H58       -16.3804   -0.0560   54.7861 H       1  ZINC000486710336    0.0600
     59 H59       -17.0204   -1.7157   54.6664 H       1  ZINC000486710336    0.0600
     60 H60       -15.8249   -0.4816   57.1941 H       1  ZINC000486710336    0.0500
     61 H61       -17.5693   -0.6491   56.8683 H       1  ZINC000486710336    0.0600
     62 H62       -16.7301   -2.5288   58.2518 H       1  ZINC000486710336    0.1000
     63 H63       -17.3098   -3.0940   56.6716 H       1  ZINC000486710336    0.0700
@<TRIPOS>BOND
     1     1     2    1
     2     1    35    1
     3     1    36    1
     4     1    37    1
     5     2    11    1
     6     2     3    1
     7     3     4    2
     8     4     5    1
     9     4    10    1
    10     5     9    1
    11     5     6    1
    12     5    38    1
    13     6     7    1
    14     6    39    1
    15     6    40    1
    16     7     8    1
    17     7    41    1
    18     7    42    1
    19     8     9    1
    20     8    43    1
    21     8    44    1
    22     9    45    1
    23     9    46    1
    24    10    11    2
    25    10    47    1
    26    11    12    1
    27    12    13   am
    28    12    48    1
    29    13    14    2
    30    13    15    1
    31    15    16    2
    32    15    17   am
    33    17    33    1
    34    17    18    1
    35    18    19    1
    36    18    49    1
    37    18    50    1
    38    19    20    1
    39    19    21    1
    40    19    27    1
    41    21    26   ar
    42    21    22   ar
    43    22    23   ar
    44    22    51    1
    45    23    24   ar
    46    23    52    1
    47    24    25   ar
    48    24    53    1
    49    25    26   ar
    50    25    54    1
    51    26    55    1
    52    27    28    1
    53    27    33    1
    54    27    29    1
    55    29    30    1
    56    29    56    1
    57    29    57    1
    58    30    31    1
    59    30    58    1
    60    30    59    1
    61    31    32    1
    62    31    60    1
    63    31    61    1
    64    32    33    1
    65    32    62    1
    66    32    63    1
    67    33    34    1
@<TRIPOS>SUBSTRUCTURE
     1 ZINC000486710336        1 TEMP              0 ****  ****    0 ROOT


##########                                Name:    ZINC000540473851
##########                DOCK_Rotatable_Bonds:                   5
##########                         Heavy_Atoms:                  29
##########                    Molecular_Weight:             411.503
##########                DOCK_Rotatable_Bonds:                   5
##########                       Formal_Charge:           0.0200001
##########                     HBond_Acceptors:                   8
##########                        HBond_Donors:                   0
##########                         Heavy_Atoms:                  29
##########                          Grid_Score:          -32.552517
##########                     Grid_vdw_energy:          -32.296680
##########                      Grid_es_energy:           -0.255836
##########           Internal_energy_repulsive:           27.258169

@<TRIPOS>MOLECULE
ZINC000540473851
 51 54 1 0 0
SMALL
USER_CHARGES


@<TRIPOS>ATOM
      1 C1        -11.2793   -3.2713   52.9074 C.3     1  ZINC000540473851   -0.0800
      2 C2        -12.7458   -2.9253   52.8811 C.2     1  ZINC000540473851    0.1500
      3 C3        -13.6353   -3.3763   53.8199 C.2     1  ZINC000540473851   -0.3100
      4 C4        -13.3219   -4.2391   54.9654 C.2     1  ZINC000540473851    0.6000
      5 O5        -13.5181   -5.4379   54.8958 O.2     1  ZINC000540473851   -0.5100
      6 N6        -12.8167   -3.7033   56.0942 N.am    1  ZINC000540473851   -0.6100
      7 C7        -12.4901   -4.5502   57.2514 C.3     1  ZINC000540473851    0.1000
      8 C8        -11.0563   -4.2385   57.6934 C.3     1  ZINC000540473851    0.0400
      9 N9        -10.9213   -2.7939   57.9232 N.3     1  ZINC000540473851   -0.5300
     10 C10        -9.6140   -2.4744   58.5122 C.3     1  ZINC000540473851    0.1200
     11 H11        -8.8562   -2.4600   57.7287 H       1  ZINC000540473851    0.0500
     12 C12        -9.2508   -3.5349   59.5535 C.3     1  ZINC000540473851   -0.1400
     13 C13        -9.6781   -1.1220   59.1739 C.ar    1  ZINC000540473851   -0.0500
     14 C14        -8.9363   -0.0703   58.6698 C.ar    1  ZINC000540473851   -0.1000
     15 C15        -8.9941    1.1711   59.2759 C.ar    1  ZINC000540473851   -0.0900
     16 C16        -9.7937    1.3617   60.3865 C.ar    1  ZINC000540473851   -0.1500
     17 C17       -10.5378    0.3088   60.8922 C.ar    1  ZINC000540473851    0.1000
     18 F18       -11.3200    0.4941   61.9780 F       1  ZINC000540473851   -0.1400
     19 C19       -10.4832   -0.9323   60.2814 C.ar    1  ZINC000540473851   -0.1500
     20 C20       -11.1404   -2.0346   56.6848 C.3     1  ZINC000540473851    0.0400
     21 C21       -12.5719   -2.2568   56.1992 C.3     1  ZINC000540473851    0.1200
     22 S22       -15.2234   -2.7347   53.4060 S.3     1  ZINC000540473851    0.2800
     23 C23       -14.5609   -1.9406   52.0450 C.2     1  ZINC000540473851    0.0800
     24 C24       -15.3329   -1.1096   51.0950 C.ar    1  ZINC000540473851    0.3800
     25 N25       -16.6363   -0.9495   51.2854 N.ar    1  ZINC000540473851   -0.5100
     26 C26       -17.3546   -0.2138   50.4556 C.ar    1  ZINC000540473851    0.1600
     27 C27       -16.7300    0.3940   49.3759 C.ar    1  ZINC000540473851   -0.2100
     28 C28       -15.3658    0.2059   49.2064 C.ar    1  ZINC000540473851    0.1500
     29 N29       -14.7047   -0.5377   50.0758 N.ar    1  ZINC000540473851   -0.4700
     30 N30       -13.2802   -2.1644   51.9648 N.2     1  ZINC000540473851   -0.4300
     31 H31       -10.7406   -2.5264   53.4931 H       1  ZINC000540473851    0.0900
     32 H32       -11.1459   -4.2544   53.3590 H       1  ZINC000540473851    0.0800
     33 H33       -10.8906   -3.2836   51.8891 H       1  ZINC000540473851    0.0800
     34 H34       -13.1796   -4.3363   58.0680 H       1  ZINC000540473851    0.0900
     35 H35       -12.5662   -5.6004   56.9697 H       1  ZINC000540473851    0.0900
     36 H36       -10.8351   -4.7756   58.6158 H       1  ZINC000540473851    0.1000
     37 H37       -10.3598   -4.5496   56.9149 H       1  ZINC000540473851    0.0400
     38 H38       -10.0086   -3.5494   60.3368 H       1  ZINC000540473851    0.0700
     39 H39        -9.2045   -4.5132   59.0747 H       1  ZINC000540473851    0.0600
     40 H40        -8.2808   -3.2980   59.9904 H       1  ZINC000540473851    0.0600
     41 H41        -8.3107   -0.2185   57.8019 H       1  ZINC000540473851    0.1400
     42 H42        -8.4137    1.9920   58.8813 H       1  ZINC000540473851    0.1300
     43 H43        -9.8382    2.3312   60.8602 H       1  ZINC000540473851    0.1300
     44 H44       -11.0633   -1.7539   60.6746 H       1  ZINC000540473851    0.1300
     45 H45       -10.9802   -0.9734   56.8756 H       1  ZINC000540473851    0.1000
     46 H46       -10.4428   -2.3765   55.9202 H       1  ZINC000540473851    0.0400
     47 H47       -12.7042   -1.7896   55.2234 H       1  ZINC000540473851    0.1000
     48 H48       -13.2721   -1.8239   56.9136 H       1  ZINC000540473851    0.0800
     49 H49       -18.4152   -0.0874   50.6155 H       1  ZINC000540473851    0.1800
     50 H50       -17.2936    1.0003   48.6823 H       1  ZINC000540473851    0.1600
     51 H51       -14.8498    0.6653   48.3763 H       1  ZINC000540473851    0.1800
@<TRIPOS>BOND
     1     1     2    1
     2     1    31    1
     3     1    32    1
     4     1    33    1
     5     2    30    1
     6     2     3    2
     7     3     4    1
     8     3    22    1
     9     4     5    2
    10     4     6   am
    11     6    21    1
    12     6     7    1
    13     7     8    1
    14     7    34    1
    15     7    35    1
    16     8     9    1
    17     8    36    1
    18     8    37    1
    19     9    10    1
    20     9    20    1
    21    10    11    1
    22    10    12    1
    23    10    13    1
    24    12    38    1
    25    12    39    1
    26    12    40    1
    27    13    19   ar
    28    13    14   ar
    29    14    15   ar
    30    14    41    1
    31    15    16   ar
    32    15    42    1
    33    16    17   ar
    34    16    43    1
    35    17    18    1
    36    17    19   ar
    37    19    44    1
    38    20    21    1
    39    20    45    1
    40    20    46    1
    41    21    47    1
    42    21    48    1
    43    22    23    1
    44    23    24    1
    45    23    30    2
    46    24    29   ar
    47    24    25   ar
    48    25    26   ar
    49    26    27   ar
    50    26    49    1
    51    27    28   ar
    52    27    50    1
    53    28    29   ar
    54    28    51    1
@<TRIPOS>SUBSTRUCTURE
     1 ZINC000540473851        1 TEMP              0 ****  ****    0 ROOT


##########                                Name:    ZINC000479580180
##########                DOCK_Rotatable_Bonds:                   5
##########                         Heavy_Atoms:                  30
##########                    Molecular_Weight:             404.444
##########                DOCK_Rotatable_Bonds:                   5
##########                       Formal_Charge:           0.0299995
##########                     HBond_Acceptors:                   7
##########                        HBond_Donors:                   1
##########                         Heavy_Atoms:                  30
##########                          Grid_Score:          -32.533779
##########                     Grid_vdw_energy:          -31.140472
##########                      Grid_es_energy:           -1.393308
##########           Internal_energy_repulsive:           11.089594

@<TRIPOS>MOLECULE
ZINC000479580180
 51 55 1 0 0
SMALL
USER_CHARGES


@<TRIPOS>ATOM
      1 O1        -11.4277   -4.0721   56.9710 O.2     1  ZINC000479580180   -0.5200
      2 C2        -11.0301   -2.9265   56.9467 C.2     1  ZINC000479580180    0.5200
      3 C3        -11.5775   -1.9604   55.9279 C.3     1  ZINC000479580180   -0.0700
      4 C4        -12.5881   -2.6648   55.0598 C.2     1  ZINC000479580180   -0.1600
      5 C5        -12.3329   -3.4819   54.0292 C.2     1  ZINC000479580180    0.0300
      6 O6        -13.4839   -3.9244   53.4925 O.3     1  ZINC000479580180   -0.1900
      7 C7        -14.5466   -3.4165   54.1482 C.ar    1  ZINC000479580180    0.0800
      8 C8        -15.9200   -3.5564   53.9954 C.ar    1  ZINC000479580180   -0.1400
      9 C9        -16.7768   -2.8890   54.8482 C.ar    1  ZINC000479580180    0.1300
     10 F10       -18.1124   -3.0270   54.6978 F       1  ZINC000479580180   -0.1300
     11 C11       -16.2788   -2.0773   55.8594 C.ar    1  ZINC000479580180   -0.1600
     12 C12       -14.9297   -1.9272   56.0248 C.ar    1  ZINC000479580180   -0.0400
     13 C13       -14.0501   -2.5987   55.1776 C.ar    1  ZINC000479580180   -0.1200
     14 N14       -10.1027   -2.5161   57.8343 N.am    1  ZINC000479580180   -0.6200
     15 C15        -9.6200   -1.1284   57.8250 C.3     1  ZINC000479580180    0.1100
     16 C16        -9.7838   -0.5400   59.2298 C.3     1  ZINC000479580180   -0.1300
     17 C17        -9.0779   -1.4443   60.2429 C.3     1  ZINC000479580180   -0.0100
     18 C18        -9.2079   -0.8505   61.6219 C.2     1  ZINC000479580180    0.3000
     19 N19       -10.0962    0.0325   61.9944 N.2     1  ZINC000479580180   -0.5300
     20 C20        -9.9192    0.3362   63.2872 C.2     1  ZINC000479580180    0.2700
     21 C21       -10.7336    1.2996   64.0689 C.ar    1  ZINC000479580180   -0.0200
     22 C22       -11.7903    1.9754   63.4623 C.ar    1  ZINC000479580180   -0.0800
     23 C23       -12.5447    2.8700   64.1941 C.ar    1  ZINC000479580180   -0.1300
     24 C24       -12.2533    3.0964   65.5271 C.ar    1  ZINC000479580180   -0.1000
     25 C25       -11.2054    2.4281   66.1342 C.ar    1  ZINC000479580180   -0.1200
     26 C26       -10.4480    1.5271   65.4135 C.ar    1  ZINC000479580180   -0.0800
     27 N27        -8.9045   -0.3613   63.7489 N.2     1  ZINC000479580180   -0.3000
     28 N28        -8.4329   -1.1429   62.6818 N.pl3   1  ZINC000479580180   -0.4800
     29 C29        -9.7197   -2.8335   60.2232 C.3     1  ZINC000479580180   -0.1400
     30 C30        -9.5595   -3.4463   58.8335 C.3     1  ZINC000479580180    0.1200
     31 H31       -12.0571   -1.1258   56.4395 H       1  ZINC000479580180    0.1100
     32 H32       -10.7632   -1.5866   55.3072 H       1  ZINC000479580180    0.1100
     33 H33       -11.3459   -3.7467   53.6800 H       1  ZINC000479580180    0.2100
     34 H34       -16.3165   -4.1850   53.2118 H       1  ZINC000479580180    0.1500
     35 H35       -16.9612   -1.5615   56.5188 H       1  ZINC000479580180    0.1400
     36 H36       -14.5471   -1.2945   56.8121 H       1  ZINC000479580180    0.1300
     37 H37        -8.5677   -1.1095   57.5413 H       1  ZINC000479580180    0.0800
     38 H38       -10.2029   -0.5436   57.1135 H       1  ZINC000479580180    0.0900
     39 H39        -9.3416    0.4558   59.2610 H       1  ZINC000479580180    0.0900
     40 H40       -10.8437   -0.4758   59.4761 H       1  ZINC000479580180    0.0700
     41 H41        -8.0230   -1.5280   59.9816 H       1  ZINC000479580180    0.1200
     42 H42       -12.0182    1.8000   62.4213 H       1  ZINC000479580180    0.1400
     43 H43       -13.3640    3.3945   63.7249 H       1  ZINC000479580180    0.1300
     44 H44       -12.8458    3.7977   66.0959 H       1  ZINC000479580180    0.1300
     45 H45       -10.9819    2.6088   67.1753 H       1  ZINC000479580180    0.1300
     46 H46        -9.6302    1.0056   65.8886 H       1  ZINC000479580180    0.1300
     47 H47        -7.6904   -1.7667   62.7032 H       1  ZINC000479580180    0.4400
     48 H48        -9.2318   -3.4699   60.9614 H       1  ZINC000479580180    0.0900
     49 H49       -10.7801   -2.7477   60.4601 H       1  ZINC000479580180    0.0700
     50 H50       -10.1002   -4.3916   58.7866 H       1  ZINC000479580180    0.1000
     51 H51        -8.5026   -3.6169   58.6289 H       1  ZINC000479580180    0.0800
@<TRIPOS>BOND
     1     1     2    2
     2     2     3    1
     3     2    14   am
     4     3     4    1
     5     3    31    1
     6     3    32    1
     7     4    13    1
     8     4     5    2
     9     5     6    1
    10     5    33    1
    11     6     7    1
    12     7    13   ar
    13     7     8   ar
    14     8     9   ar
    15     8    34    1
    16     9    10    1
    17     9    11   ar
    18    11    12   ar
    19    11    35    1
    20    12    13   ar
    21    12    36    1
    22    14    30    1
    23    14    15    1
    24    15    16    1
    25    15    37    1
    26    15    38    1
    27    16    17    1
    28    16    39    1
    29    16    40    1
    30    17    18    1
    31    17    29    1
    32    17    41    1
    33    18    28    1
    34    18    19    2
    35    19    20    1
    36    20    21    1
    37    20    27    2
    38    21    26   ar
    39    21    22   ar
    40    22    23   ar
    41    22    42    1
    42    23    24   ar
    43    23    43    1
    44    24    25   ar
    45    24    44    1
    46    25    26   ar
    47    25    45    1
    48    26    46    1
    49    27    28    1
    50    28    47    1
    51    29    30    1
    52    29    48    1
    53    29    49    1
    54    30    50    1
    55    30    51    1
@<TRIPOS>SUBSTRUCTURE
     1 ZINC000479580180        1 TEMP              0 ****  ****    0 ROOT


##########                                Name:    ZINC000647468483
##########                DOCK_Rotatable_Bonds:                   5
##########                         Heavy_Atoms:                  24
##########                    Molecular_Weight:             341.373
##########                DOCK_Rotatable_Bonds:                   5
##########                       Formal_Charge:           0.0300004
##########                     HBond_Acceptors:                   6
##########                        HBond_Donors:                   2
##########                         Heavy_Atoms:                  24
##########                          Grid_Score:          -32.529469
##########                     Grid_vdw_energy:          -27.597910
##########                      Grid_es_energy:           -4.931558
##########           Internal_energy_repulsive:           19.531996

@<TRIPOS>MOLECULE
ZINC000647468483
 46 48 1 0 0
SMALL
USER_CHARGES


@<TRIPOS>ATOM
      1 O1        -16.4112    0.5784   59.0636 O.co2   1  ZINC000647468483   -0.6800
      2 C2        -16.8538   -0.5575   59.0520 C.2     1  ZINC000647468483    0.5000
      3 O3        -18.0224   -0.7536   58.7649 O.co2   1  ZINC000647468483   -0.6900
      4 C4        -15.9548   -1.7200   59.3865 C.3     1  ZINC000647468483   -0.1500
      5 H5        -16.5190   -2.5146   59.8748 H       1  ZINC000647468483    0.0800
      6 C6        -14.7718   -1.2611   60.2747 C.3     1  ZINC000647468483   -0.1100
      7 C7        -13.6787   -2.3209   60.0258 C.3     1  ZINC000647468483   -0.1400
      8 C8        -13.9787   -2.9479   58.6530 C.3     1  ZINC000647468483    0.0100
      9 H9        -14.1620   -4.0168   58.7627 H       1  ZINC000647468483    0.1400
     10 N10       -12.8507   -2.7223   57.7394 N.4     1  ZINC000647468483   -0.5000
     11 H11       -13.0737   -1.9657   57.1102 H       1  ZINC000647468483    0.4200
     12 H12       -12.0280   -2.4847   58.2731 H       1  ZINC000647468483    0.4300
     13 C13       -12.5960   -3.9444   56.9650 C.3     1  ZINC000647468483    0.0200
     14 H14       -12.9844   -4.8119   57.4984 H       1  ZINC000647468483    0.1500
     15 C15       -13.2571   -3.8379   55.5796 C.3     1  ZINC000647468483   -0.1400
     16 C16       -12.1218   -3.9407   54.5403 C.3     1  ZINC000647468483   -0.1300
     17 C17       -10.8565   -3.4951   55.3147 C.3     1  ZINC000647468483   -0.1300
     18 C18       -11.0817   -4.1087   56.7203 C.3     1  ZINC000647468483   -0.0600
     19 H19       -10.8063   -5.1634   56.7247 H       1  ZINC000647468483    0.1300
     20 C20       -10.2913   -3.3541   57.7581 C.ar    1  ZINC000647468483   -0.1200
     21 C21        -9.6333   -4.0416   58.7603 C.ar    1  ZINC000647468483   -0.0700
     22 C22        -8.9082   -3.3493   59.7124 C.ar    1  ZINC000647468483   -0.1000
     23 C23        -8.8410   -1.9697   59.6616 C.ar    1  ZINC000647468483   -0.0600
     24 C24        -9.4987   -1.2821   58.6585 C.ar    1  ZINC000647468483   -0.1600
     25 C25        -9.4258    0.2222   58.6035 C.3     1  ZINC000647468483    0.5000
     26 F26        -8.2447    0.6086   57.9611 F       1  ZINC000647468483   -0.1700
     27 F27       -10.5258    0.7167   57.8944 F       1  ZINC000647468483   -0.1700
     28 F28        -9.4394    0.7375   59.9041 F       1  ZINC000647468483   -0.1700
     29 C29       -10.2200   -1.9745   57.7043 C.ar    1  ZINC000647468483   -0.1100
     30 C30       -15.2476   -2.2505   58.1148 C.3     1  ZINC000647468483   -0.1200
     31 H31       -14.4240   -0.2749   59.9673 H       1  ZINC000647468483    0.0800
     32 H32       -15.0637   -1.2536   61.3249 H       1  ZINC000647468483    0.0800
     33 H33       -12.6965   -1.8485   60.0139 H       1  ZINC000647468483    0.0700
     34 H34       -13.7163   -3.0855   60.8018 H       1  ZINC000647468483    0.1000
     35 H35       -13.9658   -4.6542   55.4404 H       1  ZINC000647468483    0.1000
     36 H36       -13.7671   -2.8794   55.4819 H       1  ZINC000647468483    0.0900
     37 H37       -12.0144   -4.9683   54.1930 H       1  ZINC000647468483    0.0800
     38 H38       -12.3109   -3.2711   53.7012 H       1  ZINC000647468483    0.0900
     39 H39        -9.9575   -3.9047   54.8542 H       1  ZINC000647468483    0.0900
     40 H40       -10.8015   -2.4080   55.3720 H       1  ZINC000647468483    0.0800
     41 H41        -9.6857   -5.1197   58.7999 H       1  ZINC000647468483    0.1400
     42 H42        -8.3946   -3.8865   60.4959 H       1  ZINC000647468483    0.1500
     43 H43        -8.2753   -1.4289   60.4058 H       1  ZINC000647468483    0.1500
     44 H44       -10.7337   -1.4373   56.9207 H       1  ZINC000647468483    0.1400
     45 H45       -15.8817   -2.9647   57.5895 H       1  ZINC000647468483    0.0900
     46 H46       -14.9786   -1.4229   57.4584 H       1  ZINC000647468483    0.1000
@<TRIPOS>BOND
     1     1     2   ar
     2     2     3   ar
     3     2     4    1
     4     4     5    1
     5     4    30    1
     6     4     6    1
     7     6     7    1
     8     6    31    1
     9     6    32    1
    10     7     8    1
    11     7    33    1
    12     7    34    1
    13     8     9    1
    14     8    10    1
    15     8    30    1
    16    10    11    1
    17    10    12    1
    18    10    13    1
    19    13    14    1
    20    13    18    1
    21    13    15    1
    22    15    16    1
    23    15    35    1
    24    15    36    1
    25    16    17    1
    26    16    37    1
    27    16    38    1
    28    17    18    1
    29    17    39    1
    30    17    40    1
    31    18    19    1
    32    18    20    1
    33    20    29   ar
    34    20    21   ar
    35    21    22   ar
    36    21    41    1
    37    22    23   ar
    38    22    42    1
    39    23    24   ar
    40    23    43    1
    41    24    25    1
    42    24    29   ar
    43    25    26    1
    44    25    27    1
    45    25    28    1
    46    29    44    1
    47    30    45    1
    48    30    46    1
@<TRIPOS>SUBSTRUCTURE
     1 ZINC000647468483        1 TEMP              0 ****  ****    0 ROOT


##########                                Name:    ZINC000854500114
##########                DOCK_Rotatable_Bonds:                   7
##########                         Heavy_Atoms:                  24
##########                    Molecular_Weight:             399.288
##########                DOCK_Rotatable_Bonds:                   7
##########                       Formal_Charge:          -0.0399992
##########                     HBond_Acceptors:                   7
##########                        HBond_Donors:                   2
##########                         Heavy_Atoms:                  24
##########                          Grid_Score:          -32.515572
##########                     Grid_vdw_energy:          -31.615042
##########                      Grid_es_energy:           -0.900530
##########           Internal_energy_repulsive:           80.673546

@<TRIPOS>MOLECULE
ZINC000854500114
 47 49 1 0 0
SMALL
USER_CHARGES


@<TRIPOS>ATOM
      1 O1        -11.9055   -3.3809   58.2836 O.2     1  ZINC000854500114   -0.5800
      2 C2        -10.9815   -3.3152   57.4970 C.2     1  ZINC000854500114    0.6600
      3 N3        -11.1897   -3.5706   56.1901 N.am    1  ZINC000854500114   -0.7100
      4 C4        -12.5286   -3.9333   55.7188 C.3     1  ZINC000854500114    0.1600
      5 C5        -13.4742   -2.7194   55.8287 C.3     1  ZINC000854500114   -0.1400
      6 C6        -13.4437   -2.0851   54.4160 C.3     1  ZINC000854500114   -0.1300
      7 C7        -13.3934   -3.3230   53.4865 C.3     1  ZINC000854500114   -0.1300
      8 C8        -12.4772   -4.3170   54.2296 C.3     1  ZINC000854500114   -0.1300
      9 O9         -9.7511   -2.9819   57.9301 O.3     1  ZINC000854500114   -0.3600
     10 C10        -9.6522   -2.4191   59.2650 C.3     1  ZINC000854500114    0.1000
     11 C11       -10.2794   -1.0236   59.2778 C.3     1  ZINC000854500114    0.1500
     12 H12       -11.3542   -1.1046   59.1164 H       1  ZINC000854500114    0.0900
     13 C13        -9.6562   -0.1703   58.1685 C.3     1  ZINC000854500114   -0.1300
     14 C14       -10.1847    1.2620   58.2746 C.3     1  ZINC000854500114   -0.1200
     15 C15        -9.7821    1.8574   59.6256 C.3     1  ZINC000854500114   -0.1400
     16 C16       -10.4066    1.0271   60.7515 C.3     1  ZINC000854500114    0.0900
     17 N17       -10.0230   -0.3804   60.5737 N.am    1  ZINC000854500114   -0.6100
     18 C18        -9.4425   -1.0660   61.5784 C.2     1  ZINC000854500114    0.5900
     19 O19        -9.1296   -2.2305   61.4186 O.2     1  ZINC000854500114   -0.4900
     20 C20        -9.1872   -0.4058   62.8685 C.2     1  ZINC000854500114   -0.0300
     21 C21       -10.1293    0.1410   63.7224 C.2     1  ZINC000854500114   -0.1200
     22 C22        -9.4008    0.6432   64.8041 C.2     1  ZINC000854500114    0.0200
     23 Br23      -10.1178    1.5183   66.3194 Br      1  ZINC000854500114    0.0400
     24 N24        -8.1339    0.3997   64.5821 N.2     1  ZINC000854500114   -0.2400
     25 N25        -7.9737   -0.2151   63.4659 N.pl3   1  ZINC000854500114   -0.3700
     26 H26       -10.4530   -3.5144   55.5616 H       1  ZINC000854500114    0.4000
     27 H27       -12.9180   -4.7652   56.3056 H       1  ZINC000854500114    0.0900
     28 H28       -14.4841   -3.0440   56.0794 H       1  ZINC000854500114    0.0800
     29 H29       -13.1039   -2.0133   56.5720 H       1  ZINC000854500114    0.0700
     30 H30       -14.3469   -1.5023   54.2346 H       1  ZINC000854500114    0.0700
     31 H31       -12.5534   -1.4695   54.2881 H       1  ZINC000854500114    0.0700
     32 H32       -14.3902   -3.7451   53.3589 H       1  ZINC000854500114    0.0700
     33 H33       -12.9640   -3.0574   52.5204 H       1  ZINC000854500114    0.0700
     34 H34       -11.4560   -4.2335   53.8575 H       1  ZINC000854500114    0.0700
     35 H35       -12.8425   -5.3350   54.0935 H       1  ZINC000854500114    0.0800
     36 H36       -10.1799   -3.0612   59.9700 H       1  ZINC000854500114    0.1000
     37 H37        -8.6032   -2.3486   59.5527 H       1  ZINC000854500114    0.0700
     38 H38        -8.5718   -0.1670   58.2778 H       1  ZINC000854500114    0.0800
     39 H39        -9.9232   -0.5856   57.1967 H       1  ZINC000854500114    0.0900
     40 H40        -9.7619    1.8655   57.4714 H       1  ZINC000854500114    0.0800
     41 H41       -11.2714    1.2554   58.1899 H       1  ZINC000854500114    0.0700
     42 H42        -8.6965    1.8417   59.7213 H       1  ZINC000854500114    0.0700
     43 H43       -10.1387    2.8854   59.6910 H       1  ZINC000854500114    0.0800
     44 H44       -10.0439    1.3861   61.7147 H       1  ZINC000854500114    0.0800
     45 H45       -11.4923    1.1155   60.7116 H       1  ZINC000854500114    0.0800
     46 H46       -11.1997    0.1729   63.5824 H       1  ZINC000854500114    0.1700
     47 H47        -7.1204   -0.4958   63.0998 H       1  ZINC000854500114    0.4500
@<TRIPOS>BOND
     1     1     2    2
     2     2     3   am
     3     2     9    1
     4     3     4    1
     5     3    26    1
     6     4     8    1
     7     4     5    1
     8     4    27    1
     9     5     6    1
    10     5    28    1
    11     5    29    1
    12     6     7    1
    13     6    30    1
    14     6    31    1
    15     7     8    1
    16     7    32    1
    17     7    33    1
    18     8    34    1
    19     8    35    1
    20     9    10    1
    21    10    11    1
    22    10    36    1
    23    10    37    1
    24    11    12    1
    25    11    17    1
    26    11    13    1
    27    13    14    1
    28    13    38    1
    29    13    39    1
    30    14    15    1
    31    14    40    1
    32    14    41    1
    33    15    16    1
    34    15    42    1
    35    15    43    1
    36    16    17    1
    37    16    44    1
    38    16    45    1
    39    17    18   am
    40    18    19    2
    41    18    20    1
    42    20    25    1
    43    20    21    2
    44    21    22    1
    45    21    46    1
    46    22    23    1
    47    22    24    2
    48    24    25    1
    49    25    47    1
@<TRIPOS>SUBSTRUCTURE
     1 ZINC000854500114        1 TEMP              0 ****  ****    0 ROOT


##########                                Name:    ZINC000054627026
##########                DOCK_Rotatable_Bonds:                   5
##########                         Heavy_Atoms:                  28
##########                    Molecular_Weight:              370.37
##########                DOCK_Rotatable_Bonds:                   5
##########                       Formal_Charge:         6.85453e-07
##########                     HBond_Acceptors:                   8
##########                        HBond_Donors:                   2
##########                         Heavy_Atoms:                  28
##########                          Grid_Score:          -32.491131
##########                     Grid_vdw_energy:          -30.690239
##########                      Grid_es_energy:           -1.800891
##########           Internal_energy_repulsive:            4.983326

@<TRIPOS>MOLECULE
ZINC000054627026
 42 46 1 0 0
SMALL
USER_CHARGES


@<TRIPOS>ATOM
      1 O1        -10.5222   -3.5302   56.1474 O.2     1  ZINC000054627026   -0.5200
      2 C2        -10.8804   -2.6440   56.8991 C.2     1  ZINC000054627026    0.6100
      3 N3        -11.8299   -1.7712   56.5078 N.am    1  ZINC000054627026   -0.6500
      4 C4        -12.4000   -1.8814   55.2334 C.ar    1  ZINC000054627026    0.1400
      5 C5        -13.2269   -2.9626   54.9357 C.ar    1  ZINC000054627026   -0.0900
      6 C6        -13.7946   -3.0828   53.6852 C.ar    1  ZINC000054627026   -0.0900
      7 C7        -13.5434   -2.1235   52.7150 C.ar    1  ZINC000054627026    0.0500
      8 N8        -13.9495   -1.9613   51.4019 N.pl3   1  ZINC000054627026   -0.5900
      9 C9        -13.3716   -0.8074   50.9393 C.2     1  ZINC000054627026    0.3700
     10 C10       -13.5409   -0.2598   49.5853 C.2     1  ZINC000054627026    0.0200
     11 C11       -13.1101    0.9600   49.1554 C.2     1  ZINC000054627026   -0.1200
     12 C12       -13.4820    1.0670   47.8031 C.2     1  ZINC000054627026   -0.2200
     13 C13       -14.1147   -0.0784   47.4743 C.2     1  ZINC000054627026   -0.0100
     14 O14       -14.1440   -0.8788   48.5506 O.3     1  ZINC000054627026   -0.1700
     15 N15       -12.6440   -0.2647   51.8891 N.2     1  ZINC000054627026   -0.4600
     16 C16       -12.7100   -1.0286   53.0064 C.ar    1  ZINC000054627026    0.0700
     17 C17       -12.1436   -0.9140   54.2799 C.ar    1  ZINC000054627026   -0.0900
     18 C18       -10.2800   -2.5279   58.2413 C.2     1  ZINC000054627026   -0.1000
     19 C19       -10.3713   -1.4423   59.0658 C.2     1  ZINC000054627026    0.1000
     20 N20        -9.6868   -1.7472   60.1898 N.pl3   1  ZINC000054627026   -0.3100
     21 C21        -9.5140   -0.9253   61.3127 C.ar    1  ZINC000054627026    0.1300
     22 C22       -10.0907    0.3372   61.3459 C.ar    1  ZINC000054627026   -0.1200
     23 C23        -9.9192    1.1443   62.4535 C.ar    1  ZINC000054627026   -0.1000
     24 C24        -9.1737    0.6962   63.5285 C.ar    1  ZINC000054627026   -0.1100
     25 C25        -8.5977   -0.5606   63.4981 C.ar    1  ZINC000054627026   -0.1000
     26 C26        -8.7709   -1.3746   62.3958 C.ar    1  ZINC000054627026   -0.1000
     27 N27        -9.1828   -3.0442   60.0173 N.2     1  ZINC000054627026   -0.0500
     28 N28        -9.5554   -3.4745   58.8625 N.2     1  ZINC000054627026   -0.2000
     29 H29       -12.1186   -1.0668   57.1090 H       1  ZINC000054627026    0.4200
     30 H30       -13.4238   -3.7110   55.6889 H       1  ZINC000054627026    0.1500
     31 H31       -14.4345   -3.9236   53.4608 H       1  ZINC000054627026    0.1300
     32 H32       -14.5332   -2.5535   50.9023 H       1  ZINC000054627026    0.4300
     33 H33       -12.5855    1.7011   49.7402 H       1  ZINC000054627026    0.1600
     34 H34       -13.2963    1.9077   47.1510 H       1  ZINC000054627026    0.1600
     35 H35       -14.5266   -0.3135   46.5039 H       1  ZINC000054627026    0.2100
     36 H36       -11.5063   -0.0748   54.5165 H       1  ZINC000054627026    0.1400
     37 H37       -10.8905   -0.5182   58.8588 H       1  ZINC000054627026    0.2100
     38 H38       -10.6725    0.6880   60.5063 H       1  ZINC000054627026    0.1400
     39 H39       -10.3675    2.1264   62.4800 H       1  ZINC000054627026    0.1400
     40 H40        -9.0406    1.3292   64.3934 H       1  ZINC000054627026    0.1400
     41 H41        -8.0158   -0.9077   64.3391 H       1  ZINC000054627026    0.1400
     42 H42        -8.3208   -2.3561   62.3727 H       1  ZINC000054627026    0.1400
@<TRIPOS>BOND
     1     1     2    2
     2     2     3   am
     3     2    18    1
     4     3     4    1
     5     3    29    1
     6     4    17   ar
     7     4     5   ar
     8     5     6   ar
     9     5    30    1
    10     6     7   ar
    11     6    31    1
    12     7    16   ar
    13     7     8    1
    14     8     9    1
    15     8    32    1
    16     9    10    1
    17     9    15    2
    18    10    14    1
    19    10    11    2
    20    11    12    1
    21    11    33    1
    22    12    13    2
    23    12    34    1
    24    13    14    1
    25    13    35    1
    26    15    16    1
    27    16    17   ar
    28    17    36    1
    29    18    28    1
    30    18    19    2
    31    19    20    1
    32    19    37    1
    33    20    21    1
    34    20    27    1
    35    21    26   ar
    36    21    22   ar
    37    22    23   ar
    38    22    38    1
    39    23    24   ar
    40    23    39    1
    41    24    25   ar
    42    24    40    1
    43    25    26   ar
    44    25    41    1
    45    26    42    1
    46    27    28    2
@<TRIPOS>SUBSTRUCTURE
     1 ZINC000054627026        1 TEMP              0 ****  ****    0 ROOT


##########                                Name:    ZINC000626935317
##########                DOCK_Rotatable_Bonds:                   6
##########                         Heavy_Atoms:                  25
##########                    Molecular_Weight:             366.441
##########                DOCK_Rotatable_Bonds:                   6
##########                       Formal_Charge:          -0.0200006
##########                     HBond_Acceptors:                   9
##########                        HBond_Donors:                   2
##########                         Heavy_Atoms:                  25
##########                          Grid_Score:          -32.486927
##########                     Grid_vdw_energy:          -31.539679
##########                      Grid_es_energy:           -0.947248
##########           Internal_energy_repulsive:           11.655293

@<TRIPOS>MOLECULE
ZINC000626935317
 47 49 1 0 0
SMALL
USER_CHARGES


@<TRIPOS>ATOM
      1 C1        -11.9927   -0.1257   62.1705 C.3     1  ZINC000626935317    0.0900
      2 N2        -13.0278   -0.6165   61.2573 N.am    1  ZINC000626935317   -0.6200
      3 C3        -14.3303   -0.2965   61.3449 C.2     1  ZINC000626935317    0.5200
      4 O4        -14.8121    0.4289   62.1891 O.2     1  ZINC000626935317   -0.5200
      5 C5        -15.1078   -0.9723   60.2370 C.3     1  ZINC000626935317   -0.1500
      6 C6        -14.0235   -1.4100   59.2253 C.3     1  ZINC000626935317   -0.1200
      7 H7        -13.8806   -0.6528   58.4545 H       1  ZINC000626935317    0.1200
      8 C8        -14.3655   -2.7430   58.6111 C.2     1  ZINC000626935317    0.5300
      9 O9        -15.4863   -3.1927   58.7232 O.2     1  ZINC000626935317   -0.5200
     10 N10       -13.4258   -3.4355   57.9373 N.am    1  ZINC000626935317   -0.7100
     11 C11       -13.7578   -4.7322   57.3418 C.3     1  ZINC000626935317    0.1200
     12 C12       -14.3336   -4.6277   55.9197 C.3     1  ZINC000626935317   -0.1600
     13 C13       -12.8842   -4.7054   55.4117 C.3     1  ZINC000626935317    0.1200
     14 N14       -12.2313   -3.3988   55.2980 N.am    1  ZINC000626935317   -1.1100
     15 S15       -11.0604   -3.1552   54.1527 S.o2    1  ZINC000626935317    2.6100
     16 C16       -11.8973   -3.4734   52.5750 C.3     1  ZINC000626935317   -0.6700
     17 O17       -10.7324   -1.7779   54.2742 O.2     1  ZINC000626935317   -0.9500
     18 O18       -10.0955   -4.1642   54.4177 O.2     1  ZINC000626935317   -0.9500
     19 C19       -12.5503   -5.4495   56.7154 C.3     1  ZINC000626935317   -0.1600
     20 C20       -12.7747   -1.5159   60.1255 C.3     1  ZINC000626935317    0.2000
     21 H21       -12.6535   -2.5382   60.4838 H       1  ZINC000626935317    0.1100
     22 C22       -11.5471   -1.0808   59.3675 C.ar    1  ZINC000626935317   -0.1600
     23 C23       -11.4716    0.1929   58.8253 C.ar    1  ZINC000626935317   -0.0500
     24 C24       -10.3224    0.5498   58.1363 C.ar    1  ZINC000626935317   -0.1700
     25 C25        -9.2978   -0.3691   58.0140 C.ar    1  ZINC000626935317    0.1000
     26 N26        -9.4041   -1.5725   58.5431 N.ar    1  ZINC000626935317   -0.4800
     27 C27       -10.4796   -1.9445   59.2091 C.ar    1  ZINC000626935317    0.1200
     28 H28       -11.5821    0.8081   61.7862 H       1  ZINC000626935317    0.0600
     29 H29       -12.4285    0.0469   63.1546 H       1  ZINC000626935317    0.0800
     30 H30       -11.1973   -0.8667   62.2503 H       1  ZINC000626935317    0.0700
     31 H31       -15.6435   -1.8402   60.6215 H       1  ZINC000626935317    0.1100
     32 H32       -15.8005   -0.2698   59.7737 H       1  ZINC000626935317    0.1200
     33 H33       -12.5297   -3.0753   57.8466 H       1  ZINC000626935317    0.4000
     34 H34       -14.3452   -5.3654   58.0066 H       1  ZINC000626935317    0.1100
     35 H35       -14.9437   -5.4837   55.6316 H       1  ZINC000626935317    0.1100
     36 H36       -14.8179   -3.6730   55.7138 H       1  ZINC000626935317    0.0800
     37 H37       -12.7674   -5.3162   54.5165 H       1  ZINC000626935317    0.1100
     38 H38       -12.4849   -2.6764   55.8938 H       1  ZINC000626935317    0.4100
     39 H39       -12.7303   -2.7800   52.4592 H       1  ZINC000626935317    0.1300
     40 H40       -11.1924   -3.3346   51.7553 H       1  ZINC000626935317    0.1300
     41 H41       -12.2720   -4.4969   52.5625 H       1  ZINC000626935317    0.1300
     42 H42       -11.5949   -5.1585   57.1519 H       1  ZINC000626935317    0.0900
     43 H43       -12.6729   -6.5303   56.6449 H       1  ZINC000626935317    0.1100
     44 H44       -12.2887    0.8902   58.9364 H       1  ZINC000626935317    0.1400
     45 H45       -10.2294    1.5337   57.7005 H       1  ZINC000626935317    0.1400
     46 H46        -8.3995   -0.0990   57.4787 H       1  ZINC000626935317    0.1600
     47 H47       -10.5305   -2.9385   59.6284 H       1  ZINC000626935317    0.1500
@<TRIPOS>BOND
     1     1     2    1
     2     1    28    1
     3     1    29    1
     4     1    30    1
     5     2    20    1
     6     2     3   am
     7     3     4    2
     8     3     5    1
     9     5     6    1
    10     5    31    1
    11     5    32    1
    12     6     7    1
    13     6     8    1
    14     6    20    1
    15     8     9    2
    16     8    10   am
    17    10    11    1
    18    10    33    1
    19    11    19    1
    20    11    12    1
    21    11    34    1
    22    12    13    1
    23    12    35    1
    24    12    36    1
    25    13    14    1
    26    13    19    1
    27    13    37    1
    28    14    15   am
    29    14    38    1
    30    15    16    1
    31    15    17    2
    32    15    18    2
    33    16    39    1
    34    16    40    1
    35    16    41    1
    36    19    42    1
    37    19    43    1
    38    20    21    1
    39    20    22    1
    40    22    27   ar
    41    22    23   ar
    42    23    24   ar
    43    23    44    1
    44    24    25   ar
    45    24    45    1
    46    25    26   ar
    47    25    46    1
    48    26    27   ar
    49    27    47    1
@<TRIPOS>SUBSTRUCTURE
     1 ZINC000626935317        1 TEMP              0 ****  ****    0 ROOT


##########                                Name:    ZINC001120957943
##########                DOCK_Rotatable_Bonds:                   4
##########                         Heavy_Atoms:                  27
##########                    Molecular_Weight:             396.802
##########                DOCK_Rotatable_Bonds:                   4
##########                       Formal_Charge:          -0.0199996
##########                     HBond_Acceptors:                  10
##########                        HBond_Donors:                   0
##########                         Heavy_Atoms:                  27
##########                          Grid_Score:          -32.460632
##########                     Grid_vdw_energy:          -32.202065
##########                      Grid_es_energy:           -0.258569
##########           Internal_energy_repulsive:            9.083926

@<TRIPOS>MOLECULE
ZINC001120957943
 43 46 1 0 0
SMALL
USER_CHARGES


@<TRIPOS>ATOM
      1 C1        -11.1405   -4.7747   57.5045 C.3     1  ZINC001120957943    0.0900
      2 N2        -12.0871   -3.7155   57.8625 N.pl3   1  ZINC001120957943   -0.6000
      3 C3        -13.3146   -3.5359   57.0833 C.3     1  ZINC001120957943    0.2200
      4 C4        -13.0363   -3.8326   55.6322 C.2     1  ZINC001120957943    0.1600
      5 N5        -13.3838   -4.9114   54.9786 N.2     1  ZINC001120957943   -0.2500
      6 N6        -12.9826   -4.8281   53.7564 N.2     1  ZINC001120957943   -0.2800
      7 C7        -12.3650   -3.6998   53.5792 C.2     1  ZINC001120957943    0.1700
      8 C8        -11.7245   -3.1668   52.3224 C.3     1  ZINC001120957943   -0.0300
      9 C9        -10.7968   -2.0086   52.7134 C.3     1  ZINC001120957943   -0.1300
     10 C10       -11.5501   -1.0459   53.6359 C.3     1  ZINC001120957943   -0.1500
     11 H11       -12.5068   -0.7839   53.1839 H       1  ZINC001120957943    0.1300
     12 C12       -10.7179    0.2218   53.8383 C.3     1  ZINC001120957943    0.4600
     13 F13       -10.4974    0.8374   52.6015 F       1  ZINC001120957943   -0.1700
     14 F14       -11.4058    1.1017   54.6811 F       1  ZINC001120957943   -0.1800
     15 F15        -9.4895   -0.1141   54.4175 F       1  ZINC001120957943   -0.1800
     16 C16       -11.7933   -1.7184   54.9921 C.3     1  ZINC001120957943    0.1100
     17 N17       -12.3879   -3.0347   54.7620 N.pl3   1  ZINC001120957943   -0.4700
     18 C18       -11.8211   -2.8825   58.9394 C.ar    1  ZINC001120957943    0.3700
     19 C19       -12.8672   -2.1557   59.5342 C.ar    1  ZINC001120957943    0.0500
     20 N20       -12.6348   -1.3638   60.5531 N.ar    1  ZINC001120957943   -0.3900
     21 C21       -11.3910   -1.2439   61.0340 C.ar    1  ZINC001120957943    0.0400
     22 C22       -11.1158   -0.4024   62.1251 C.ar    1  ZINC001120957943   -0.0600
     23 C23        -9.8411   -0.2996   62.5944 C.ar    1  ZINC001120957943   -0.0400
     24 Cl24       -9.5068    0.7414   63.9427 Cl      1  ZINC001120957943   -0.0600
     25 C25        -8.8010   -1.0194   62.0071 C.ar    1  ZINC001120957943   -0.0800
     26 C26        -9.0312   -1.8436   60.9489 C.ar    1  ZINC001120957943   -0.0800
     27 C27       -10.3337   -1.9746   60.4374 C.ar    1  ZINC001120957943    0.1400
     28 N28       -10.5890   -2.7826   59.4010 N.ar    1  ZINC001120957943   -0.4700
     29 H29       -10.4137   -4.3865   56.7908 H       1  ZINC001120957943    0.0700
     30 H30       -10.6226   -5.1172   58.4003 H       1  ZINC001120957943    0.0800
     31 H31       -11.6807   -5.6084   57.0560 H       1  ZINC001120957943    0.0700
     32 H32       -14.0821   -4.2161   57.4526 H       1  ZINC001120957943    0.1200
     33 H33       -13.6616   -2.5075   57.1838 H       1  ZINC001120957943    0.1000
     34 H34       -11.1459   -3.9555   51.8413 H       1  ZINC001120957943    0.1100
     35 H35       -12.4952   -2.8071   51.6407 H       1  ZINC001120957943    0.1000
     36 H36        -9.9230   -2.4017   53.2331 H       1  ZINC001120957943    0.0900
     37 H37       -10.4787   -1.4782   51.8158 H       1  ZINC001120957943    0.1000
     38 H38       -10.8464   -1.8283   55.5207 H       1  ZINC001120957943    0.1000
     39 H39       -12.4767   -1.1100   55.5845 H       1  ZINC001120957943    0.1100
     40 H40       -13.8714   -2.2502   59.1482 H       1  ZINC001120957943    0.1700
     41 H41       -11.9117    0.1607   62.5897 H       1  ZINC001120957943    0.1500
     42 H42        -7.7986   -0.9210   62.3972 H       1  ZINC001120957943    0.1400
     43 H43        -8.2160   -2.3947   60.5036 H       1  ZINC001120957943    0.1500
@<TRIPOS>BOND
     1     1     2    1
     2     1    29    1
     3     1    30    1
     4     1    31    1
     5     2     3    1
     6     2    18    1
     7     3     4    1
     8     3    32    1
     9     3    33    1
    10     4    17    1
    11     4     5    2
    12     5     6    1
    13     6     7    2
    14     7    17    1
    15     7     8    1
    16     8     9    1
    17     8    34    1
    18     8    35    1
    19     9    10    1
    20     9    36    1
    21     9    37    1
    22    10    11    1
    23    10    12    1
    24    10    16    1
    25    12    13    1
    26    12    14    1
    27    12    15    1
    28    16    17    1
    29    16    38    1
    30    16    39    1
    31    18    28   ar
    32    18    19   ar
    33    19    20   ar
    34    19    40    1
    35    20    21   ar
    36    21    27   ar
    37    21    22   ar
    38    22    23   ar
    39    22    41    1
    40    23    24    1
    41    23    25   ar
    42    25    26   ar
    43    25    42    1
    44    26    27   ar
    45    26    43    1
    46    27    28   ar
@<TRIPOS>SUBSTRUCTURE
     1 ZINC001120957943        1 TEMP              0 ****  ****    0 ROOT


##########                                Name:    ZINC000963156778
##########                DOCK_Rotatable_Bonds:                   6
##########                         Heavy_Atoms:                  24
##########                    Molecular_Weight:             349.414
##########                DOCK_Rotatable_Bonds:                   6
##########                       Formal_Charge:         -0.00999984
##########                     HBond_Acceptors:                   9
##########                        HBond_Donors:                   2
##########                         Heavy_Atoms:                  24
##########                          Grid_Score:          -32.448093
##########                     Grid_vdw_energy:          -30.056290
##########                      Grid_es_energy:           -2.391805
##########           Internal_energy_repulsive:            8.790178

@<TRIPOS>MOLECULE
ZINC000963156778
 43 46 1 0 0
SMALL
USER_CHARGES


@<TRIPOS>ATOM
      1 C1        -14.6233   -2.9720   53.7980 C.3     1  ZINC000963156778   -0.0800
      2 C2        -13.1811   -2.9035   53.3661 C.2     1  ZINC000963156778    0.0300
      3 C3        -12.1410   -3.2500   54.1596 C.2     1  ZINC000963156778   -0.2600
      4 C4        -12.1867   -3.7564   55.5783 C.3     1  ZINC000963156778    0.1300
      5 N5        -11.0380   -3.2261   56.3248 N.3     1  ZINC000963156778   -0.5000
      6 C6        -11.1299   -3.5792   57.7648 C.3     1  ZINC000963156778    0.0600
      7 C7        -10.2216   -2.5530   58.4756 C.3     1  ZINC000963156778   -0.1700
      8 H8         -9.3337   -2.9305   58.9829 H       1  ZINC000963156778    0.1200
      9 C9        -10.1592   -1.3436   57.5203 C.3     1  ZINC000963156778   -0.1700
     10 H10        -9.2274   -0.8118   57.3273 H       1  ZINC000963156778    0.1200
     11 C11       -11.0350   -1.7407   56.3126 C.3     1  ZINC000963156778    0.0600
     12 C12       -10.8440   -1.2308   58.9287 C.3     1  ZINC000963156778    0.1200
     13 H13       -11.9317   -1.1653   58.9546 H       1  ZINC000963156778    0.1400
     14 N14       -10.1409   -0.4667   59.9622 N.am    1  ZINC000963156778   -0.7000
     15 C15       -10.7594    0.5594   60.5795 C.2     1  ZINC000963156778    0.5100
     16 O16       -11.8984    0.8492   60.2805 O.2     1  ZINC000963156778   -0.5000
     17 C17       -10.0355    1.3466   61.6414 C.3     1  ZINC000963156778   -0.1300
     18 C18       -10.1452    0.6163   62.9813 C.3     1  ZINC000963156778   -0.1100
     19 H19       -11.1079    0.1116   63.0641 H       1  ZINC000963156778    0.1300
     20 C20        -9.9449    1.5989   64.1530 C.3     1  ZINC000963156778   -0.1600
     21 C21        -8.7157    1.0662   64.8564 C.2     1  ZINC000963156778    0.5300
     22 O22        -8.2069    1.5503   65.8446 O.2     1  ZINC000963156778   -0.4800
     23 N23        -8.2792   -0.0248   64.2148 N.am    1  ZINC000963156778   -0.6900
     24 C24        -9.0105   -0.3714   63.1440 C.2     1  ZINC000963156778    0.5200
     25 O25        -8.7934   -1.3216   62.4232 O.2     1  ZINC000963156778   -0.4500
     26 S26       -10.7539   -2.9807   53.1769 S.3     1  ZINC000963156778    0.4500
     27 N27       -11.5421   -2.4831   51.9196 N.2     1  ZINC000963156778   -0.2900
     28 N28       -12.7925   -2.5048   52.1721 N.2     1  ZINC000963156778   -0.2400
     29 H29       -15.0274   -3.9560   53.5603 H       1  ZINC000963156778    0.0900
     30 H30       -14.6893   -2.8020   54.8726 H       1  ZINC000963156778    0.0800
     31 H31       -15.1964   -2.2075   53.2733 H       1  ZINC000963156778    0.0800
     32 H32       -13.1114   -3.4269   56.0521 H       1  ZINC000963156778    0.1000
     33 H33       -12.1475   -4.8457   55.5767 H       1  ZINC000963156778    0.0700
     34 H34       -12.1578   -3.4838   58.1148 H       1  ZINC000963156778    0.0600
     35 H35       -10.7629   -4.5918   57.9321 H       1  ZINC000963156778    0.0800
     36 H36       -10.5965   -1.3689   55.3865 H       1  ZINC000963156778    0.1000
     37 H37       -12.0480   -1.3574   56.4353 H       1  ZINC000963156778    0.0500
     38 H38        -9.2303   -0.6992   60.2021 H       1  ZINC000963156778    0.4000
     39 H39        -8.9854    1.4466   61.3670 H       1  ZINC000963156778    0.1000
     40 H40       -10.4840    2.3362   61.7291 H       1  ZINC000963156778    0.1200
     41 H41        -9.7670    2.6080   63.7813 H       1  ZINC000963156778    0.1200
     42 H42       -10.8067    1.5811   64.8203 H       1  ZINC000963156778    0.1300
     43 H43        -7.4991   -0.5251   64.5010 H       1  ZINC000963156778    0.4200
@<TRIPOS>BOND
     1     1     2    1
     2     1    29    1
     3     1    30    1
     4     1    31    1
     5     2    28    1
     6     2     3    2
     7     3     4    1
     8     3    26    1
     9     4     5    1
    10     4    32    1
    11     4    33    1
    12     5    11    1
    13     5     6    1
    14     6     7    1
    15     6    34    1
    16     6    35    1
    17     7     8    1
    18     7    12    1
    19     7     9    1
    20     9    10    1
    21     9    11    1
    22     9    12    1
    23    11    36    1
    24    11    37    1
    25    12    13    1
    26    12    14    1
    27    14    15   am
    28    14    38    1
    29    15    16    2
    30    15    17    1
    31    17    18    1
    32    17    39    1
    33    17    40    1
    34    18    19    1
    35    18    24    1
    36    18    20    1
    37    20    21    1
    38    20    41    1
    39    20    42    1
    40    21    22    2
    41    21    23   am
    42    23    24   am
    43    23    43    1
    44    24    25    2
    45    26    27    1
    46    27    28    2
@<TRIPOS>SUBSTRUCTURE
     1 ZINC000963156778        1 TEMP              0 ****  ****    0 ROOT


##########                                Name:    ZINC000245764166
##########                DOCK_Rotatable_Bonds:                   8
##########                         Heavy_Atoms:                  26
##########                    Molecular_Weight:             359.512
##########                DOCK_Rotatable_Bonds:                   8
##########                       Formal_Charge:          -0.0100008
##########                     HBond_Acceptors:                   5
##########                        HBond_Donors:                   2
##########                         Heavy_Atoms:                  26
##########                          Grid_Score:          -32.435024
##########                     Grid_vdw_energy:          -31.649754
##########                      Grid_es_energy:           -0.785272
##########           Internal_energy_repulsive:           22.858349

@<TRIPOS>MOLECULE
ZINC000245764166
 59 61 1 0 0
SMALL
USER_CHARGES


@<TRIPOS>ATOM
      1 C1        -11.3178   -2.1690   52.2884 C.3     1  ZINC000245764166    0.0200
      2 N2        -11.7284   -0.8057   52.6501 N.3     1  ZINC000245764166   -0.5300
      3 C3        -13.1343   -0.5680   52.2963 C.3     1  ZINC000245764166    0.0600
      4 C4        -13.2238   -0.1391   50.8544 C.ar    1  ZINC000245764166   -0.0800
      5 C5        -12.9286    1.1644   50.5015 C.ar    1  ZINC000245764166   -0.1000
      6 C6        -13.0107    1.5579   49.1789 C.ar    1  ZINC000245764166   -0.1200
      7 C7        -13.3876    0.6478   48.2091 C.ar    1  ZINC000245764166   -0.1200
      8 C8        -13.6819   -0.6560   48.5618 C.ar    1  ZINC000245764166   -0.1200
      9 C9        -13.5957   -1.0506   49.8839 C.ar    1  ZINC000245764166   -0.1200
     10 C10       -11.4935   -0.5462   54.0767 C.3     1  ZINC000245764166    0.0500
     11 C11       -10.4801    0.5900   54.2282 C.3     1  ZINC000245764166    0.1900
     12 C12        -9.6500    0.7071   52.9483 C.3     1  ZINC000245764166   -0.1600
     13 C13       -11.2214    1.9049   54.4775 C.3     1  ZINC000245764166   -0.1500
     14 N14        -9.5944    0.3066   55.3603 N.am    1  ZINC000245764166   -0.7400
     15 C15       -10.1168    0.0059   56.5658 C.2     1  ZINC000245764166    0.7000
     16 O16       -11.3230   -0.0288   56.7142 O.2     1  ZINC000245764166   -0.5800
     17 N17        -9.3020   -0.2564   57.6069 N.am    1  ZINC000245764166   -0.7500
     18 C18        -9.8699   -0.5816   58.9176 C.3     1  ZINC000245764166    0.1800
     19 H19       -10.8165   -1.1037   58.7789 H       1  ZINC000245764166    0.0900
     20 C20       -10.1173    0.7103   59.6924 C.3     1  ZINC000245764166   -0.1300
     21 C21       -10.7664    0.3583   61.0355 C.3     1  ZINC000245764166   -0.1100
     22 C22        -9.7774   -0.4827   61.8423 C.3     1  ZINC000245764166   -0.1100
     23 C23        -9.4038   -1.7487   61.1076 C.3     1  ZINC000245764166    0.0900
     24 H24        -8.6134   -2.2587   61.6582 H       1  ZINC000245764166    0.0600
     25 O25       -10.5084   -2.6476   60.9399 O.3     1  ZINC000245764166   -0.3600
     26 C26       -10.1023   -3.5999   59.9369 C.3     1  ZINC000245764166    0.0500
     27 C27        -9.0436   -2.9109   59.0521 C.3     1  ZINC000245764166   -0.1500
     28 C28        -8.8997   -1.4905   59.6753 C.3     1  ZINC000245764166   -0.1300
     29 H29        -7.8730   -1.1254   59.6539 H       1  ZINC000245764166    0.1000
     30 H30       -11.4866   -2.3289   51.2235 H       1  ZINC000245764166    0.0800
     31 H31       -10.2594   -2.3011   52.5124 H       1  ZINC000245764166    0.0700
     32 H32       -11.9030   -2.8887   52.8611 H       1  ZINC000245764166    0.0200
     33 H33       -13.7048   -1.4859   52.4384 H       1  ZINC000245764166    0.0400
     34 H34       -13.5421    0.2158   52.9345 H       1  ZINC000245764166    0.1100
     35 H35       -12.6341    1.8755   51.2592 H       1  ZINC000245764166    0.1200
     36 H36       -12.7807    2.5766   48.9033 H       1  ZINC000245764166    0.1200
     37 H37       -13.4524    0.9555   47.1759 H       1  ZINC000245764166    0.1200
     38 H38       -13.9767   -1.3669   47.8043 H       1  ZINC000245764166    0.1200
     39 H39       -13.8256   -2.0692   50.1595 H       1  ZINC000245764166    0.1200
     40 H40       -12.4315   -0.2624   54.5538 H       1  ZINC000245764166    0.0400
     41 H41       -11.1029   -1.4469   54.5504 H       1  ZINC000245764166    0.1000
     42 H42       -10.3090    0.9180   52.1060 H       1  ZINC000245764166    0.0700
     43 H43        -8.9280    1.5166   53.0563 H       1  ZINC000245764166    0.0800
     44 H44        -9.1218   -0.2297   52.7707 H       1  ZINC000245764166    0.0500
     45 H45       -11.7136    1.8660   55.4493 H       1  ZINC000245764166    0.0600
     46 H46       -10.5107    2.7312   54.4630 H       1  ZINC000245764166    0.0800
     47 H47       -11.9683    2.0544   53.6977 H       1  ZINC000245764166    0.0600
     48 H48        -8.6320    0.3354   55.2423 H       1  ZINC000245764166    0.3900
     49 H49        -8.3397   -0.2300   57.4882 H       1  ZINC000245764166    0.3900
     50 H50        -9.1695    1.2198   59.8665 H       1  ZINC000245764166    0.0600
     51 H51       -10.7840    1.3570   59.1222 H       1  ZINC000245764166    0.0700
     52 H52       -11.0012    1.2726   61.5807 H       1  ZINC000245764166    0.0700
     53 H53       -11.6792   -0.2122   60.8640 H       1  ZINC000245764166    0.0700
     54 H54        -8.8764    0.1030   62.0242 H       1  ZINC000245764166    0.0800
     55 H55       -10.2297   -0.7456   62.7985 H       1  ZINC000245764166    0.0700
     56 H56        -9.6705   -4.4794   60.4144 H       1  ZINC000245764166    0.0600
     57 H57       -10.9609   -3.8886   59.3308 H       1  ZINC000245764166    0.0800
     58 H58        -8.0961   -3.4475   59.1015 H       1  ZINC000245764166    0.0800
     59 H59        -9.3922   -2.8428   58.0216 H       1  ZINC000245764166    0.0800
@<TRIPOS>BOND
     1     1     2    1
     2     1    30    1
     3     1    31    1
     4     1    32    1
     5     2     3    1
     6     2    10    1
     7     3     4    1
     8     3    33    1
     9     3    34    1
    10     4     9   ar
    11     4     5   ar
    12     5     6   ar
    13     5    35    1
    14     6     7   ar
    15     6    36    1
    16     7     8   ar
    17     7    37    1
    18     8     9   ar
    19     8    38    1
    20     9    39    1
    21    10    11    1
    22    10    40    1
    23    10    41    1
    24    11    12    1
    25    11    13    1
    26    11    14    1
    27    12    42    1
    28    12    43    1
    29    12    44    1
    30    13    45    1
    31    13    46    1
    32    13    47    1
    33    14    15   am
    34    14    48    1
    35    15    16    2
    36    15    17   am
    37    17    18    1
    38    17    49    1
    39    18    19    1
    40    18    28    1
    41    18    20    1
    42    20    21    1
    43    20    50    1
    44    20    51    1
    45    21    22    1
    46    21    52    1
    47    21    53    1
    48    22    23    1
    49    22    54    1
    50    22    55    1
    51    23    24    1
    52    23    28    1
    53    23    25    1
    54    25    26    1
    55    26    27    1
    56    26    56    1
    57    26    57    1
    58    27    28    1
    59    27    58    1
    60    27    59    1
    61    28    29    1
@<TRIPOS>SUBSTRUCTURE
     1 ZINC000245764166        1 TEMP              0 ****  ****    0 ROOT


##########                                Name:    ZINC001310073555
##########                DOCK_Rotatable_Bonds:                  12
##########                         Heavy_Atoms:                  27
##########                    Molecular_Weight:             380.484
##########                DOCK_Rotatable_Bonds:                  12
##########                       Formal_Charge:          0.00999888
##########                     HBond_Acceptors:                   7
##########                        HBond_Donors:                   2
##########                         Heavy_Atoms:                  27
##########                          Grid_Score:          -32.418591
##########                     Grid_vdw_energy:          -33.192913
##########                      Grid_es_energy:            0.774321
##########           Internal_energy_repulsive:           55.281967

@<TRIPOS>MOLECULE
ZINC001310073555
 59 59 1 0 0
SMALL
USER_CHARGES


@<TRIPOS>ATOM
      1 C1        -11.4472   -3.2863   53.3294 C.3     1  ZINC001310073555   -0.1600
      2 C2        -12.8888   -2.8535   53.6042 C.3     1  ZINC001310073555   -0.1100
      3 C3        -13.1955   -3.0183   55.0940 C.3     1  ZINC001310073555   -0.0600
      4 C4        -12.9251   -4.4646   55.5135 C.3     1  ZINC001310073555   -0.1100
      5 C5        -14.0653   -4.9583   56.4062 C.3     1  ZINC001310073555   -0.1600
      6 C6        -12.3035   -2.0766   55.9055 C.3     1  ZINC001310073555    0.1600
      7 N7        -12.4600   -2.3653   57.3332 N.am    1  ZINC001310073555   -0.7400
      8 C8        -11.6146   -1.8170   58.2282 C.2     1  ZINC001310073555    0.7100
      9 O9        -10.7227   -1.0816   57.8508 O.2     1  ZINC001310073555   -0.5700
     10 N10       -11.7576   -2.0839   59.5415 N.am    1  ZINC001310073555   -0.6700
     11 C11       -10.8771   -1.5129   60.4738 C.ar    1  ZINC001310073555    0.1000
     12 C12       -11.0908   -0.2209   60.9290 C.ar    1  ZINC001310073555   -0.0400
     13 C13       -10.2238    0.3416   61.8470 C.ar    1  ZINC001310073555   -0.2200
     14 C14        -9.1390   -0.3847   62.3149 C.ar    1  ZINC001310073555    0.1500
     15 O15        -8.2880    0.1714   63.2179 O.3     1  ZINC001310073555   -0.3200
     16 C16        -8.4083   -0.2613   64.5746 C.3     1  ZINC001310073555    0.0300
     17 C17        -8.9216   -1.6781   61.8631 C.ar    1  ZINC001310073555   -0.2300
     18 C18        -9.7909   -2.2457   60.9468 C.ar    1  ZINC001310073555    0.1400
     19 O19        -9.5795   -3.5135   60.5025 O.3     1  ZINC001310073555   -0.3100
     20 C20        -8.5163   -3.7042   59.5669 C.3     1  ZINC001310073555    0.0300
     21 C21       -14.6425   -2.6835   55.3490 C.2     1  ZINC001310073555    0.4800
     22 O22       -15.4840   -2.9812   54.5345 O.2     1  ZINC001310073555   -0.5000
     23 O23       -14.9968   -2.0548   56.4808 O.3     1  ZINC001310073555   -0.3400
     24 C24       -16.2680   -1.3532   56.4750 C.3     1  ZINC001310073555    0.1200
     25 C25       -16.3291   -0.4183   55.2655 C.3     1  ZINC001310073555   -0.1800
     26 C26       -17.4101   -2.3680   56.3935 C.3     1  ZINC001310073555   -0.1400
     27 C27       -16.4042   -0.5341   57.7601 C.3     1  ZINC001310073555   -0.1800
     28 H28       -11.2287   -3.1689   52.2679 H       1  ZINC001310073555    0.0600
     29 H29       -10.7647   -2.6669   53.9114 H       1  ZINC001310073555    0.0500
     30 H30       -11.3212   -4.3311   53.6129 H       1  ZINC001310073555    0.0600
     31 H31       -13.0149   -1.8086   53.3206 H       1  ZINC001310073555    0.0800
     32 H32       -13.5712   -3.4729   53.0220 H       1  ZINC001310073555    0.0800
     33 H33       -12.8598   -5.0941   54.6260 H       1  ZINC001310073555    0.0800
     34 H34       -11.9855   -4.5136   56.0637 H       1  ZINC001310073555    0.0800
     35 H35       -14.1306   -4.3287   57.2936 H       1  ZINC001310073555    0.0600
     36 H36       -15.0050   -4.9092   55.8560 H       1  ZINC001310073555    0.0500
     37 H37       -13.8727   -5.9886   56.7051 H       1  ZINC001310073555    0.0600
     38 H38       -11.2627   -2.2237   55.6171 H       1  ZINC001310073555    0.0800
     39 H39       -12.5924   -1.0440   55.7098 H       1  ZINC001310073555    0.0800
     40 H40       -13.1722   -2.9510   57.6344 H       1  ZINC001310073555    0.4000
     41 H41       -12.4689   -2.6706   59.8427 H       1  ZINC001310073555    0.4100
     42 H42       -11.9350    0.3465   60.5659 H       1  ZINC001310073555    0.1500
     43 H43       -10.3913    1.3484   62.2002 H       1  ZINC001310073555    0.1300
     44 H44        -9.4105   -0.0370   64.9399 H       1  ZINC001310073555    0.0600
     45 H45        -8.2332   -1.3356   64.6302 H       1  ZINC001310073555    0.0600
     46 H46        -7.6729    0.2589   65.1883 H       1  ZINC001310073555    0.1000
     47 H47        -8.0766   -2.2429   62.2280 H       1  ZINC001310073555    0.1400
     48 H48        -8.4563   -4.7579   59.2950 H       1  ZINC001310073555    0.1000
     49 H49        -8.7070   -3.1089   58.6740 H       1  ZINC001310073555    0.0600
     50 H50        -7.5747   -3.3911   60.0181 H       1  ZINC001310073555    0.0600
     51 H51       -16.2320   -1.0018   54.3499 H       1  ZINC001310073555    0.0600
     52 H52       -17.2834    0.1084   55.2611 H       1  ZINC001310073555    0.0700
     53 H53       -15.5154    0.3046   55.3235 H       1  ZINC001310073555    0.0800
     54 H54       -17.3666   -3.0340   57.2553 H       1  ZINC001310073555    0.0700
     55 H55       -18.3645   -1.8413   56.3892 H       1  ZINC001310073555    0.0800
     56 H56       -17.3131   -2.9515   55.4780 H       1  ZINC001310073555    0.0700
     57 H57       -15.5905    0.1888   57.8182 H       1  ZINC001310073555    0.0800
     58 H58       -17.3585   -0.0075   57.7558 H       1  ZINC001310073555    0.0700
     59 H59       -16.3607   -1.2002   58.6219 H       1  ZINC001310073555    0.0600
@<TRIPOS>BOND
     1     1     2    1
     2     1    28    1
     3     1    29    1
     4     1    30    1
     5     2     3    1
     6     2    31    1
     7     2    32    1
     8     3     4    1
     9     3     6    1
    10     3    21    1
    11     4     5    1
    12     4    33    1
    13     4    34    1
    14     5    35    1
    15     5    36    1
    16     5    37    1
    17     6     7    1
    18     6    38    1
    19     6    39    1
    20     7     8   am
    21     7    40    1
    22     8     9    2
    23     8    10   am
    24    10    11    1
    25    10    41    1
    26    11    18   ar
    27    11    12   ar
    28    12    13   ar
    29    12    42    1
    30    13    14   ar
    31    13    43    1
    32    14    15    1
    33    14    17   ar
    34    15    16    1
    35    16    44    1
    36    16    45    1
    37    16    46    1
    38    17    18   ar
    39    17    47    1
    40    18    19    1
    41    19    20    1
    42    20    48    1
    43    20    49    1
    44    20    50    1
    45    21    22    2
    46    21    23    1
    47    23    24    1
    48    24    25    1
    49    24    26    1
    50    24    27    1
    51    25    51    1
    52    25    52    1
    53    25    53    1
    54    26    54    1
    55    26    55    1
    56    26    56    1
    57    27    57    1
    58    27    58    1
    59    27    59    1
@<TRIPOS>SUBSTRUCTURE
     1 ZINC001310073555        1 TEMP              0 ****  ****    0 ROOT


##########                                Name:    ZINC000020646552
##########                DOCK_Rotatable_Bonds:                   5
##########                         Heavy_Atoms:                  29
##########                    Molecular_Weight:             412.556
##########                DOCK_Rotatable_Bonds:                   5
##########                       Formal_Charge:          -0.0200012
##########                     HBond_Acceptors:                   7
##########                        HBond_Donors:                   0
##########                         Heavy_Atoms:                  29
##########                          Grid_Score:          -32.415829
##########                     Grid_vdw_energy:          -32.109703
##########                      Grid_es_energy:           -0.306126
##########           Internal_energy_repulsive:            8.276145

@<TRIPOS>MOLECULE
ZINC000020646552
 57 60 1 0 0
SMALL
USER_CHARGES


@<TRIPOS>ATOM
      1 C1        -13.8855    0.6401   50.4702 C.3     1  ZINC000020646552    0.0200
      2 N2        -12.8143   -0.0838   51.1677 N.3     1  ZINC000020646552   -0.5400
      3 C3        -12.9973   -1.5366   51.0496 C.3     1  ZINC000020646552    0.0400
      4 C4        -11.7720   -2.2512   51.6295 C.3     1  ZINC000020646552    0.1200
      5 N5        -11.5500   -1.7615   52.9985 N.am    1  ZINC000020646552   -0.6100
      6 C6        -11.4029   -2.6218   54.0256 C.2     1  ZINC000020646552    0.5300
      7 O7        -11.4512   -3.8172   53.8270 O.2     1  ZINC000020646552   -0.5200
      8 C8        -11.1781   -2.0982   55.4207 C.3     1  ZINC000020646552   -0.1500
      9 S9        -10.9883   -3.4888   56.5637 S.3     1  ZINC000020646552    0.0500
     10 C10       -11.6075   -2.7566   58.0419 C.ar    1  ZINC000020646552    0.1500
     11 N11       -10.7730   -2.2714   58.9550 N.ar    1  ZINC000020646552   -0.5200
     12 C12       -11.2385   -1.7205   60.0674 C.ar    1  ZINC000020646552    0.3800
     13 C13       -10.2802   -1.1858   61.0654 C.ar    1  ZINC000020646552   -0.0500
     14 C14        -9.3462   -2.0315   61.6612 C.ar    1  ZINC000020646552   -0.0700
     15 C15        -8.4566   -1.5284   62.5887 C.ar    1  ZINC000020646552   -0.1300
     16 C16        -8.4909   -0.1876   62.9272 C.ar    1  ZINC000020646552   -0.1000
     17 C17        -9.4160    0.6562   62.3394 C.ar    1  ZINC000020646552   -0.1300
     18 C18       -10.3066    0.1653   61.4064 C.ar    1  ZINC000020646552   -0.0700
     19 N19       -12.5383   -1.6354   60.3099 N.ar    1  ZINC000020646552   -0.5200
     20 C20       -13.4270   -2.1007   59.4410 C.ar    1  ZINC000020646552    0.2100
     21 C21       -12.9859   -2.6720   58.2695 C.ar    1  ZINC000020646552   -0.2100
     22 C22       -13.9423   -3.2066   57.2395 C.3     1  ZINC000020646552    0.1100
     23 O23       -15.2416   -3.3667   57.8101 O.3     1  ZINC000020646552   -0.3600
     24 C24       -15.7133   -2.1913   58.4786 C.3     1  ZINC000020646552    0.1100
     25 C25       -15.5373   -0.9759   57.5660 C.3     1  ZINC000020646552   -0.1800
     26 C26       -17.1926   -2.3594   58.8308 C.3     1  ZINC000020646552   -0.1400
     27 C27       -14.8958   -1.9910   59.7547 C.3     1  ZINC000020646552   -0.0900
     28 C28       -11.4925   -0.3081   53.2170 C.3     1  ZINC000020646552    0.1100
     29 C29       -12.7288    0.3300   52.5746 C.3     1  ZINC000020646552    0.0400
     30 H30       -13.6849    1.7108   50.5081 H       1  ZINC000020646552    0.0700
     31 H31       -13.9269    0.3147   49.4307 H       1  ZINC000020646552    0.0700
     32 H32       -14.8397    0.4320   50.9543 H       1  ZINC000020646552    0.0300
     33 H33       -13.8883   -1.8370   51.6010 H       1  ZINC000020646552    0.0400
     34 H34       -13.1115   -1.8047   49.9993 H       1  ZINC000020646552    0.0900
     35 H35       -11.9506   -3.3262   51.6496 H       1  ZINC000020646552    0.1000
     36 H36       -10.8973   -2.0340   51.0166 H       1  ZINC000020646552    0.0800
     37 H37       -10.2756   -1.4874   55.4386 H       1  ZINC000020646552    0.1300
     38 H38       -12.0325   -1.4929   55.7237 H       1  ZINC000020646552    0.1200
     39 H39        -9.3188   -3.0785   61.3978 H       1  ZINC000020646552    0.1400
     40 H40        -7.7327   -2.1828   63.0513 H       1  ZINC000020646552    0.1300
     41 H41        -7.7929    0.2018   63.6535 H       1  ZINC000020646552    0.1300
     42 H42        -9.4385    1.7021   62.6078 H       1  ZINC000020646552    0.1300
     43 H43       -11.0285    0.8250   60.9480 H       1  ZINC000020646552    0.1300
     44 H44       -13.9984   -2.5102   56.4028 H       1  ZINC000020646552    0.0800
     45 H45       -13.5841   -4.1714   56.8803 H       1  ZINC000020646552    0.1100
     46 H46       -16.1077   -1.1244   56.6491 H       1  ZINC000020646552    0.0700
     47 H47       -15.8969   -0.0828   58.0770 H       1  ZINC000020646552    0.0700
     48 H48       -14.4819   -0.8547   57.3218 H       1  ZINC000020646552    0.0600
     49 H49       -17.3144   -3.2220   59.4860 H       1  ZINC000020646552    0.0700
     50 H50       -17.5490   -1.4637   59.3394 H       1  ZINC000020646552    0.0800
     51 H51       -17.7684   -2.5123   57.9179 H       1  ZINC000020646552    0.0700
     52 H52       -15.1638   -2.7581   60.4812 H       1  ZINC000020646552    0.1000
     53 H53       -15.1097   -1.0069   60.1718 H       1  ZINC000020646552    0.1000
     54 H54       -11.4864   -0.0987   54.2866 H       1  ZINC000020646552    0.0900
     55 H55       -10.5909    0.0959   52.7567 H       1  ZINC000020646552    0.0800
     56 H56       -12.6482    1.4155   52.6302 H       1  ZINC000020646552    0.0900
     57 H57       -13.6235    0.0036   53.1047 H       1  ZINC000020646552    0.0400
@<TRIPOS>BOND
     1     1     2    1
     2     1    30    1
     3     1    31    1
     4     1    32    1
     5     2    29    1
     6     2     3    1
     7     3     4    1
     8     3    33    1
     9     3    34    1
    10     4     5    1
    11     4    35    1
    12     4    36    1
    13     5     6   am
    14     5    28    1
    15     6     7    2
    16     6     8    1
    17     8     9    1
    18     8    37    1
    19     8    38    1
    20     9    10    1
    21    10    21   ar
    22    10    11   ar
    23    11    12   ar
    24    12    13    1
    25    12    19   ar
    26    13    18   ar
    27    13    14   ar
    28    14    15   ar
    29    14    39    1
    30    15    16   ar
    31    15    40    1
    32    16    17   ar
    33    16    41    1
    34    17    18   ar
    35    17    42    1
    36    18    43    1
    37    19    20   ar
    38    20    27    1
    39    20    21   ar
    40    21    22    1
    41    22    23    1
    42    22    44    1
    43    22    45    1
    44    23    24    1
    45    24    25    1
    46    24    26    1
    47    24    27    1
    48    25    46    1
    49    25    47    1
    50    25    48    1
    51    26    49    1
    52    26    50    1
    53    26    51    1
    54    27    52    1
    55    27    53    1
    56    28    29    1
    57    28    54    1
    58    28    55    1
    59    29    56    1
    60    29    57    1
@<TRIPOS>SUBSTRUCTURE
     1 ZINC000020646552        1 TEMP              0 ****  ****    0 ROOT


##########                                Name:    ZINC000581017854
##########                DOCK_Rotatable_Bonds:                   6
##########                         Heavy_Atoms:                  24
##########                    Molecular_Weight:             330.334
##########                DOCK_Rotatable_Bonds:                   6
##########                       Formal_Charge:           0.0099998
##########                     HBond_Acceptors:                   6
##########                        HBond_Donors:                   2
##########                         Heavy_Atoms:                  24
##########                          Grid_Score:          -32.370876
##########                     Grid_vdw_energy:          -29.592840
##########                      Grid_es_energy:           -2.778037
##########           Internal_energy_repulsive:           10.385012

@<TRIPOS>MOLECULE
ZINC000581017854
 40 42 1 0 0
SMALL
USER_CHARGES


@<TRIPOS>ATOM
      1 C1        -14.3081   -4.8712   57.1409 C.3     1  ZINC000581017854   -0.1600
      2 C2        -12.8153   -4.9064   56.8073 C.3     1  ZINC000581017854    0.1500
      3 H3        -12.4636   -5.9380   56.8235 H       1  ZINC000581017854    0.1100
      4 C4        -12.5896   -4.3124   55.4155 C.3     1  ZINC000581017854    0.0500
      5 O5        -13.0042   -2.9449   55.4083 O.3     1  ZINC000581017854   -0.3100
      6 C6        -12.8683   -2.2651   54.2394 C.ar    1  ZINC000581017854    0.1600
      7 C7        -12.3469   -2.9016   53.1225 C.ar    1  ZINC000581017854   -0.2200
      8 C8        -12.2092   -2.2095   51.9344 C.ar    1  ZINC000581017854   -0.0500
      9 C9        -12.5900   -0.8831   51.8573 C.ar    1  ZINC000581017854   -0.1900
     10 C10       -13.1105   -0.2443   52.9706 C.ar    1  ZINC000581017854    0.1400
     11 F11       -13.4821    1.0523   52.8932 F       1  ZINC000581017854   -0.1300
     12 C12       -13.2562   -0.9357   54.1600 C.ar    1  ZINC000581017854   -0.1900
     13 N13       -12.0747   -4.1224   57.7988 N.am    1  ZINC000581017854   -0.7300
     14 C14       -10.7997   -4.4427   58.0954 C.2     1  ZINC000581017854    0.5900
     15 O15       -10.2640   -5.3837   57.5406 O.2     1  ZINC000581017854   -0.5400
     16 C16       -10.0565   -3.6554   59.0885 C.2     1  ZINC000581017854   -0.2200
     17 C17        -8.7156   -3.7038   59.3305 C.2     1  ZINC000581017854    0.1100
     18 N18        -8.3963   -2.8328   60.3185 N.pl3   1  ZINC000581017854   -0.5700
     19 C19        -9.5247   -2.1759   60.7644 C.ar    1  ZINC000581017854    0.1100
     20 C20        -9.7389   -1.2073   61.7391 C.ar    1  ZINC000581017854   -0.1600
     21 C21       -11.0135   -0.7289   61.9655 C.ar    1  ZINC000581017854    0.1200
     22 F22       -11.2169    0.2124   62.9130 F       1  ZINC000581017854   -0.1400
     23 C23       -12.0889   -1.2062   61.2271 C.ar    1  ZINC000581017854   -0.1700
     24 C24       -11.8947   -2.1657   60.2577 C.ar    1  ZINC000581017854   -0.0300
     25 C25       -10.6128   -2.6523   60.0155 C.ar    1  ZINC000581017854   -0.0700
     26 H26       -14.8591   -5.4545   56.4031 H       1  ZINC000581017854    0.0700
     27 H27       -14.4689   -5.2944   58.1324 H       1  ZINC000581017854    0.0700
     28 H28       -14.6598   -3.8397   57.1247 H       1  ZINC000581017854    0.0700
     29 H29       -11.5311   -4.3724   55.1621 H       1  ZINC000581017854    0.0700
     30 H30       -13.1709   -4.8722   54.6829 H       1  ZINC000581017854    0.0800
     31 H31       -12.0484   -3.9378   53.1815 H       1  ZINC000581017854    0.1400
     32 H32       -11.8032   -2.7055   51.0652 H       1  ZINC000581017854    0.1400
     33 H33       -12.4811   -0.3440   50.9278 H       1  ZINC000581017854    0.1400
     34 H34       -13.6623   -0.4382   55.0283 H       1  ZINC000581017854    0.1400
     35 H35       -12.5022   -3.3729   58.2420 H       1  ZINC000581017854    0.4000
     36 H36        -8.0134   -4.3404   58.8128 H       1  ZINC000581017854    0.1800
     37 H37        -7.5009   -2.6916   60.6639 H       1  ZINC000581017854    0.4200
     38 H38        -8.9091   -0.8303   62.3185 H       1  ZINC000581017854    0.1400
     39 H39       -13.0816   -0.8240   61.4141 H       1  ZINC000581017854    0.1400
     40 H40       -12.7324   -2.5356   59.6851 H       1  ZINC000581017854    0.1500
@<TRIPOS>BOND
     1     1     2    1
     2     1    26    1
     3     1    27    1
     4     1    28    1
     5     2     3    1
     6     2     4    1
     7     2    13    1
     8     4     5    1
     9     4    29    1
    10     4    30    1
    11     5     6    1
    12     6    12   ar
    13     6     7   ar
    14     7     8   ar
    15     7    31    1
    16     8     9   ar
    17     8    32    1
    18     9    10   ar
    19     9    33    1
    20    10    11    1
    21    10    12   ar
    22    12    34    1
    23    13    14   am
    24    13    35    1
    25    14    15    2
    26    14    16    1
    27    16    25    1
    28    16    17    2
    29    17    18    1
    30    17    36    1
    31    18    19    1
    32    18    37    1
    33    19    25   ar
    34    19    20   ar
    35    20    21   ar
    36    20    38    1
    37    21    22    1
    38    21    23   ar
    39    23    24   ar
    40    23    39    1
    41    24    25   ar
    42    24    40    1
@<TRIPOS>SUBSTRUCTURE
     1 ZINC000581017854        1 TEMP              0 ****  ****    0 ROOT


##########                                Name:    ZINC001570985666
##########                DOCK_Rotatable_Bonds:                   7
##########                         Heavy_Atoms:                  26
##########                    Molecular_Weight:             357.415
##########                DOCK_Rotatable_Bonds:                   7
##########                       Formal_Charge:          -0.0100001
##########                     HBond_Acceptors:                   9
##########                        HBond_Donors:                   3
##########                         Heavy_Atoms:                  26
##########                          Grid_Score:          -32.360146
##########                     Grid_vdw_energy:          -33.415997
##########                      Grid_es_energy:            1.055849
##########           Internal_energy_repulsive:           10.721899

@<TRIPOS>MOLECULE
ZINC001570985666
 49 52 1 0 0
SMALL
USER_CHARGES


@<TRIPOS>ATOM
      1 C1         -9.1705   -0.1351   58.2487 C.3     1  ZINC001570985666   -0.1600
      2 C2        -10.1521   -0.8989   59.1399 C.3     1  ZINC001570985666    0.1300
      3 H3        -10.9822   -0.2496   59.4181 H       1  ZINC001570985666    0.0800
      4 C4         -9.4292   -1.3994   60.4083 C.3     1  ZINC001570985666    0.1400
      5 H5         -8.3561   -1.4793   60.2343 H       1  ZINC001570985666    0.1100
      6 N6         -9.7038   -0.5157   61.5440 N.am    1  ZINC001570985666   -0.7200
      7 C7         -9.0387   -0.6831   62.7042 C.2     1  ZINC001570985666    0.6000
      8 O8         -8.2115   -1.5685   62.8087 O.2     1  ZINC001570985666   -0.5300
      9 C9         -9.3135    0.2067   63.8458 C.2     1  ZINC001570985666   -0.2300
     10 C10        -8.6569    0.2130   65.0574 C.2     1  ZINC001570985666    0.0700
     11 N11        -9.2041    1.1732   65.8291 N.pl3   1  ZINC001570985666   -0.5200
     12 C12       -10.2118    1.7942   65.1331 C.2     1  ZINC001570985666    0.0600
     13 C13       -11.0549    2.9019   65.6358 C.2     1  ZINC001570985666    0.2500
     14 N14       -10.9769    3.4771   66.8209 N.2     1  ZINC001570985666   -0.3100
     15 N15       -11.8795    4.3955   66.8732 N.pl3   1  ZINC001570985666   -0.2200
     16 N16       -12.5267    4.4214   65.7609 N.2     1  ZINC001570985666   -0.0400
     17 N17       -12.0439    3.5211   64.9735 N.2     1  ZINC001570985666   -0.2600
     18 C18       -10.3005    1.2245   63.9047 C.2     1  ZINC001570985666   -0.0600
     19 C19       -10.0547   -2.8010   60.6345 C.3     1  ZINC001570985666   -0.1500
     20 C20       -10.2597   -3.2888   59.1785 C.3     1  ZINC001570985666    0.1000
     21 N21       -10.6588   -2.0808   58.4273 N.am    1  ZINC001570985666   -0.6200
     22 C22       -11.3669   -2.0672   57.2807 C.2     1  ZINC001570985666    0.5300
     23 O23       -11.6380   -1.0119   56.7480 O.2     1  ZINC001570985666   -0.5300
     24 C24       -11.8216   -3.3631   56.6604 C.3     1  ZINC001570985666   -0.1300
     25 C25       -12.0797   -3.1510   55.1673 C.3     1  ZINC001570985666   -0.1000
     26 C26       -10.8799   -3.5153   54.2770 C.3     1  ZINC001570985666   -0.1300
     27 C27       -11.8945   -4.1228   53.2938 C.3     1  ZINC001570985666   -0.1400
     28 C28       -12.8286   -4.3165   54.4999 C.3     1  ZINC001570985666   -0.1400
     29 H29        -9.6864    0.2103   57.3528 H       1  ZINC001570985666    0.0700
     30 H30        -8.7761    0.7221   58.7942 H       1  ZINC001570985666    0.0700
     31 H31        -8.3499   -0.7938   57.9643 H       1  ZINC001570985666    0.0600
     32 H32       -10.3643    0.1898   61.4611 H       1  ZINC001570985666    0.4000
     33 H33        -7.8442   -0.4395   65.3404 H       1  ZINC001570985666    0.1800
     34 H34        -8.9295    1.3910   66.7334 H       1  ZINC001570985666    0.4300
     35 H35       -12.0454    4.9763   67.6323 H       1  ZINC001570985666    0.4800
     36 H36       -10.9956    1.4910   63.1222 H       1  ZINC001570985666    0.1600
     37 H37        -9.3668   -3.4537   61.1720 H       1  ZINC001570985666    0.0900
     38 H38       -11.0074   -2.7238   61.1584 H       1  ZINC001570985666    0.0800
     39 H39        -9.3299   -3.6948   58.7800 H       1  ZINC001570985666    0.0800
     40 H40       -11.0503   -4.0380   59.1372 H       1  ZINC001570985666    0.0800
     41 H41       -11.0482   -4.1198   56.7915 H       1  ZINC001570985666    0.0900
     42 H42       -12.7403   -3.6948   57.1443 H       1  ZINC001570985666    0.0900
     43 H43       -12.5080   -2.1732   54.9465 H       1  ZINC001570985666    0.1000
     44 H44       -10.3520   -2.6485   53.8795 H       1  ZINC001570985666    0.0700
     45 H45       -10.2115   -4.2508   54.7246 H       1  ZINC001570985666    0.0800
     46 H46       -12.2712   -3.4107   52.5596 H       1  ZINC001570985666    0.0800
     47 H47       -11.5611   -5.0586   52.8450 H       1  ZINC001570985666    0.0700
     48 H48       -12.6929   -5.2711   55.0084 H       1  ZINC001570985666    0.0800
     49 H49       -13.8738   -4.0965   54.2824 H       1  ZINC001570985666    0.0700
@<TRIPOS>BOND
     1     1     2    1
     2     1    29    1
     3     1    30    1
     4     1    31    1
     5     2     3    1
     6     2    21    1
     7     2     4    1
     8     4     5    1
     9     4     6    1
    10     4    19    1
    11     6     7   am
    12     6    32    1
    13     7     8    2
    14     7     9    1
    15     9    18    1
    16     9    10    2
    17    10    11    1
    18    10    33    1
    19    11    12    1
    20    11    34    1
    21    12    13    1
    22    12    18    2
    23    13    17    1
    24    13    14    2
    25    14    15    1
    26    15    16    1
    27    15    35    1
    28    16    17    2
    29    18    36    1
    30    19    20    1
    31    19    37    1
    32    19    38    1
    33    20    21    1
    34    20    39    1
    35    20    40    1
    36    21    22   am
    37    22    23    2
    38    22    24    1
    39    24    25    1
    40    24    41    1
    41    24    42    1
    42    25    28    1
    43    25    26    1
    44    25    43    1
    45    26    27    1
    46    26    44    1
    47    26    45    1
    48    27    28    1
    49    27    46    1
    50    27    47    1
    51    28    48    1
    52    28    49    1
@<TRIPOS>SUBSTRUCTURE
     1 ZINC001570985666        1 TEMP              0 ****  ****    0 ROOT


##########                                Name:    ZINC000291036115
##########                DOCK_Rotatable_Bonds:                   5
##########                         Heavy_Atoms:                  22
##########                    Molecular_Weight:             366.193
##########                DOCK_Rotatable_Bonds:                   5
##########                       Formal_Charge:                0.01
##########                     HBond_Acceptors:                   7
##########                        HBond_Donors:                   0
##########                         Heavy_Atoms:                  22
##########                          Grid_Score:          -32.336197
##########                     Grid_vdw_energy:          -30.993671
##########                      Grid_es_energy:           -1.342527
##########           Internal_energy_repulsive:            5.458117

@<TRIPOS>MOLECULE
ZINC000291036115
 35 37 1 0 0
SMALL
USER_CHARGES


@<TRIPOS>ATOM
      1 C1        -11.5755   -3.1776   53.5966 C.3     1  <0>        -0.1500
      2 C2        -12.1247   -3.5765   54.9678 C.3     1  <0>        -0.0400
      3 H3        -11.9968   -4.6493   55.1123 H       1  <0>         0.0900
      4 C4        -13.6119   -3.2254   55.0434 C.3     1  <0>        -0.0200
      5 C5        -14.1488   -3.6025   56.4000 C.2     1  <0>         0.1900
      6 N6        -14.9420   -2.8804   57.1544 N.2     1  <0>        -0.4500
      7 C7        -15.1545   -3.6134   58.2618 C.2     1  <0>         0.1500
      8 C8        -16.0051   -3.2201   59.4421 C.3     1  <0>         0.2300
      9 N9        -15.2012   -2.4380   60.3845 N.pl3   1  <0>        -0.3900
     10 C10       -14.4849   -2.9116   61.4188 C.2     1  <0>         0.2600
     11 N11       -13.9114   -1.8973   62.0138 N.2     1  <0>        -0.5400
     12 C12       -14.2366   -0.7652   61.3909 C.2     1  <0>         0.2000
     13 N13       -15.0207   -1.0452   60.3832 N.2     1  <0>        -0.3100
     14 N14       -14.4923   -4.7232   58.1270 N.2     1  <0>        -0.3600
     15 O15       -13.9123   -4.7393   57.0617 O.3     1  <0>         0.0900
     16 C16       -11.3775   -2.8320   56.0441 C.ar    1  <0>        -0.0900
     17 C17       -11.4262   -1.4514   56.0898 C.ar    1  <0>        -0.0700
     18 C18       -10.7418   -0.7670   57.0766 C.ar    1  <0>        -0.1400
     19 C19       -10.0071   -1.4644   58.0197 C.ar    1  <0>         0.1300
     20 F20        -9.3381   -0.7965   58.9849 F       1  <0>        -0.1200
     21 C21        -9.9586   -2.8485   57.9734 C.ar    1  <0>        -0.1300
     22 Br22       -8.9560   -3.8038   59.2610 Br      1  <0>        -0.0200
     23 C23       -10.6484   -3.5308   56.9884 C.ar    1  <0>        -0.0500
     24 H24       -12.1160   -3.7162   52.8181 H       1  <0>         0.0600
     25 H25       -11.7033   -2.1049   53.4521 H       1  <0>         0.0700
     26 H26       -10.5160   -3.4278   53.5428 H       1  <0>         0.0700
     27 H27       -13.7408   -2.1544   54.8865 H       1  <0>         0.1200
     28 H28       -14.1542   -3.7733   54.2729 H       1  <0>         0.1100
     29 H29       -16.8481   -2.6205   59.0987 H       1  <0>         0.1300
     30 H30       -16.3756   -4.1173   59.9379 H       1  <0>         0.1200
     31 H31       -14.3984   -3.9485   61.7085 H       1  <0>         0.2200
     32 H32       -13.9028    0.2231   61.6706 H       1  <0>         0.2200
     33 H33       -11.9992   -0.9070   55.3537 H       1  <0>         0.1400
     34 H34       -10.7800    0.3118   57.1116 H       1  <0>         0.1500
     35 H35       -10.6110   -4.6095   56.9517 H       1  <0>         0.1400
@<TRIPOS>BOND
     1     1     2    1
     2     1    24    1
     3     1    25    1
     4     1    26    1
     5     2     3    1
     6     2     4    1
     7     2    16    1
     8     4     5    1
     9     4    27    1
    10     4    28    1
    11     5    15    1
    12     5     6    2
    13     6     7    1
    14     7     8    1
    15     7    14    2
    16     8     9    1
    17     8    29    1
    18     8    30    1
    19     9    13    1
    20     9    10    1
    21    10    11    2
    22    10    31    1
    23    11    12    1
    24    12    13    2
    25    12    32    1
    26    14    15    1
    27    16    23   ar
    28    16    17   ar
    29    17    18   ar
    30    17    33    1
    31    18    19   ar
    32    18    34    1
    33    19    20    1
    34    19    21   ar
    35    21    22    1
    36    21    23   ar
    37    23    35    1
@<TRIPOS>SUBSTRUCTURE
     1 <0>         1 TEMP              0 ****  ****    0 ROOT


##########                                Name:      oleObject5.pdb
##########                DOCK_Rotatable_Bonds:                   5
##########                         Heavy_Atoms:                  24
##########                    Molecular_Weight:             323.438
##########                DOCK_Rotatable_Bonds:                   5
##########                       Formal_Charge:         0.000200074
##########                     HBond_Acceptors:                   4
##########                        HBond_Donors:                   2
##########                         Heavy_Atoms:                  24
##########                          Grid_Score:          -32.323174
##########                     Grid_vdw_energy:          -31.938818
##########                      Grid_es_energy:           -0.384354
##########           Internal_energy_repulsive:           15.244445

@<TRIPOS>MOLECULE
oleObject5.pdb
 49 51 1 0 0
SMALL
NO_CHARGES


@<TRIPOS>ATOM
      1 C         -13.2261   -5.3451   56.7266 C.3     1  UNL        -0.0394
      2 C         -13.4866   -4.1905   57.6891 C.ar    1  UNL        -0.0456
      3 C         -14.6688   -4.2248   58.4546 C.ar    1  UNL        -0.0590
      4 C         -14.9820   -3.1863   59.3428 C.ar    1  UNL        -0.0620
      5 C         -14.1143   -2.0949   59.4703 C.ar    1  UNL        -0.0619
      6 C         -12.9358   -2.0478   58.7120 C.ar    1  UNL        -0.0565
      7 C         -12.6001   -3.0897   57.8215 C.ar    1  UNL        -0.0188
      8 C         -11.3099   -2.9598   57.0006 C.3     1  UNL         0.0906
      9 N         -11.6491   -2.8311   55.5723 N.am    1  UNL        -0.3025
     10 C         -10.9416   -3.4680   54.5687 C.2     1  UNL         0.2156
     11 O         -10.0927   -4.3091   54.8093 O.2     1  UNL        -0.2774
     12 C         -11.4772   -3.1874   53.1518 C.3     1  UNL         0.0382
     13 C         -10.6590   -2.0742   52.4441 C.3     1  UNL        -0.0292
     14 C         -10.9846   -0.6757   53.0125 C.3     1  UNL        -0.0041
     15 N         -12.4275   -0.3962   52.9151 N.4     1  UNL        -0.3167
     16 C         -13.2633   -1.3810   53.6247 C.3     1  UNL        -0.0041
     17 C         -12.9877   -2.8252   53.1352 C.3     1  UNL        -0.0292
     18 C         -10.4209   -1.8123   57.5100 C.ar    1  UNL         0.0681
     19 N         -10.5096   -0.6353   56.8439 N.ar    1  UNL        -0.2587
     20 C          -9.7637    0.4104   57.2469 C.ar    1  UNL         0.0272
     21 C          -8.8897    0.3390   58.3413 C.ar    1  UNL        -0.0435
     22 C          -8.7911   -0.8705   59.0436 C.ar    1  UNL        -0.0559
     23 C          -9.5662   -1.9705   58.6299 C.ar    1  UNL        -0.0272
     24 C          -9.4659   -3.2822   59.3984 C.3     1  UNL        -0.0379
     25 H         -13.9460   -6.1604   56.8705 H       1  UNL         0.0280
     26 H         -12.2284   -5.7759   56.8655 H       1  UNL         0.0280
     27 H         -13.3171   -5.0181   55.6851 H       1  UNL         0.0280
     28 H         -15.3558   -5.0610   58.3580 H       1  UNL         0.0626
     29 H         -15.8978   -3.2254   59.9255 H       1  UNL         0.0623
     30 H         -14.3556   -1.2841   60.1517 H       1  UNL         0.0623
     31 H         -12.2820   -1.1869   58.8153 H       1  UNL         0.0627
     32 H         -10.7190   -3.8751   57.1006 H       1  UNL         0.0624
     33 H         -12.6136   -2.6019   55.3709 H       1  UNL         0.1504
     34 H         -11.3490   -4.1180   52.5840 H       1  UNL         0.0402
     35 H         -10.8956   -2.0831   51.3723 H       1  UNL         0.0288
     36 H          -9.5821   -2.2677   52.5254 H       1  UNL         0.0288
     37 H         -10.4216    0.0842   52.4561 H       1  UNL         0.0428
     38 H         -10.6665   -0.6259   54.0621 H       1  UNL         0.0428
     39 H         -12.6941   -0.3852   51.9313 H       1  UNL         0.1222
     40 H         -14.3236   -1.1427   53.4726 H       1  UNL         0.0428
     41 H         -13.0649   -1.3149   54.7016 H       1  UNL         0.0428
     42 H         -13.3610   -2.9201   52.1074 H       1  UNL         0.0288
     43 H         -13.5568   -3.5417   53.7415 H       1  UNL         0.0288
     44 H          -9.8706    1.3316   56.6755 H       1  UNL         0.0840
     45 H          -8.3032    1.2031   58.6390 H       1  UNL         0.0639
     46 H          -8.1234   -0.9501   59.8969 H       1  UNL         0.0627
     47 H          -8.7551   -3.2094   60.2311 H       1  UNL         0.0280
     48 H          -9.1227   -4.0963   58.7484 H       1  UNL         0.0280
     49 H         -10.4363   -3.5653   59.8237 H       1  UNL         0.0280
@<TRIPOS>BOND
     1     1     2    1
     2     1    25    1
     3     1    26    1
     4     1    27    1
     5     2     3   ar
     6     2     7   ar
     7     3     4   ar
     8     3    28    1
     9     4     5   ar
    10     4    29    1
    11     5     6   ar
    12     5    30    1
    13     6     7   ar
    14     6    31    1
    15     7     8    1
    16     8     9    1
    17     8    18    1
    18     8    32    1
    19     9    10   am
    20     9    33    1
    21    10    11    2
    22    10    12    1
    23    12    13    1
    24    12    17    1
    25    12    34    1
    26    13    14    1
    27    13    35    1
    28    13    36    1
    29    14    15    1
    30    14    37    1
    31    14    38    1
    32    15    16    1
    33    15    39    1
    34    16    17    1
    35    16    40    1
    36    16    41    1
    37    17    42    1
    38    17    43    1
    39    18    19   ar
    40    18    23   ar
    41    19    20   ar
    42    20    21   ar
    43    20    44    1
    44    21    22   ar
    45    21    45    1
    46    22    23   ar
    47    22    46    1
    48    23    24    1
    49    24    47    1
    50    24    48    1
    51    24    49    1
@<TRIPOS>SUBSTRUCTURE
     1 UNL         1 TEMP              0 ****  ****    0 ROOT


##########                                Name:    ZINC000948289723
##########                DOCK_Rotatable_Bonds:                   6
##########                         Heavy_Atoms:                  24
##########                    Molecular_Weight:             331.415
##########                DOCK_Rotatable_Bonds:                   6
##########                       Formal_Charge:           0.0599999
##########                     HBond_Acceptors:                   6
##########                        HBond_Donors:                   1
##########                         Heavy_Atoms:                  24
##########                          Grid_Score:          -32.323097
##########                     Grid_vdw_energy:          -25.490870
##########                      Grid_es_energy:           -6.832229
##########           Internal_energy_repulsive:            8.132586

@<TRIPOS>MOLECULE
ZINC000948289723
 49 52 1 0 0
SMALL
USER_CHARGES


@<TRIPOS>ATOM
      1 C1         -9.8025   -1.1243   57.7690 C.3     1  ZINC000948289723   -0.1400
      2 C2         -9.6898   -1.7534   59.1592 C.3     1  ZINC000948289723   -0.1100
      3 C3         -9.3881   -0.7367   60.2727 C.3     1  ZINC000948289723   -0.1100
      4 C4        -10.3781   -1.5216   61.1495 C.3     1  ZINC000948289723   -0.1400
      5 C5        -11.2574   -0.6432   62.0017 C.2     1  ZINC000948289723    0.5400
      6 O6        -12.4620   -0.6748   61.8639 O.2     1  ZINC000948289723   -0.5300
      7 N7        -10.7052    0.1775   62.9171 N.am    1  ZINC000948289723   -0.6200
      8 C8        -11.4416    1.0833   63.8107 C.3     1  ZINC000948289723    0.1100
      9 C9        -10.4006    1.7982   64.6977 C.3     1  ZINC000948289723   -0.1100
     10 H10       -10.1439    2.7727   64.2821 H       1  ZINC000948289723    0.1000
     11 C11       -10.9176    1.9423   66.1305 C.3     1  ZINC000948289723   -0.1400
     12 C12        -9.1814    0.8400   64.6438 C.3     1  ZINC000948289723    0.1400
     13 H13        -9.2925    0.0257   65.3597 H       1  ZINC000948289723    0.1200
     14 N14        -7.9307    1.5683   64.8709 N.am    1  ZINC000948289723   -0.7100
     15 C15        -7.2778    1.4371   66.0426 C.2     1  ZINC000948289723    0.6100
     16 O16        -7.7259    0.7131   66.9105 O.2     1  ZINC000948289723   -0.5000
     17 C17        -6.0194    2.1717   66.2721 C.2     1  ZINC000948289723   -0.0900
     18 C18        -5.1863    2.6932   65.3201 C.2     1  ZINC000948289723   -0.1400
     19 C19        -4.1444    3.2835   66.0695 C.2     1  ZINC000948289723    0.0500
     20 C20        -2.9422    4.0101   65.5236 C.3     1  ZINC000948289723   -0.0900
     21 C21        -2.2932    3.4494   64.2566 C.3     1  ZINC000948289723   -0.1600
     22 C22        -3.1054    4.7444   64.1913 C.3     1  ZINC000948289723   -0.1600
     23 N23        -4.4257    3.0777   67.3232 N.2     1  ZINC000948289723   -0.3300
     24 O24        -5.4614    2.4696   67.4606 O.3     1  ZINC000948289723    0.1200
     25 C25        -9.2630    0.3109   63.1924 C.3     1  ZINC000948289723    0.0900
     26 C26       -11.0477   -1.9819   59.8438 C.3     1  ZINC000948289723   -0.1200
     27 H27       -10.2943   -0.1547   57.8477 H       1  ZINC000948289723    0.0600
     28 H28        -8.8059   -0.9931   57.3477 H       1  ZINC000948289723    0.0600
     29 H29       -10.3877   -1.7770   57.1212 H       1  ZINC000948289723    0.0600
     30 H30        -9.0394   -2.6280   59.1765 H       1  ZINC000948289723    0.0900
     31 H31        -8.3599   -0.7759   60.6328 H       1  ZINC000948289723    0.0700
     32 H32        -9.7181    0.2759   60.0407 H       1  ZINC000948289723    0.1000
     33 H33        -9.9151   -2.3314   61.7133 H       1  ZINC000948289723    0.1100
     34 H34       -11.9936    1.8165   63.2226 H       1  ZINC000948289723    0.0800
     35 H35       -12.1292    0.5114   64.4338 H       1  ZINC000948289723    0.0800
     36 H36       -11.1399    0.9559   66.5374 H       1  ZINC000948289723    0.0600
     37 H37       -10.1575    2.4258   66.7442 H       1  ZINC000948289723    0.0600
     38 H38       -11.8239    2.5479   66.1305 H       1  ZINC000948289723    0.0700
     39 H39        -7.5725    2.1449   64.1780 H       1  ZINC000948289723    0.4100
     40 H40        -5.2988    2.6607   64.2466 H       1  ZINC000948289723    0.1800
     41 H41        -2.2861    4.4596   66.2690 H       1  ZINC000948289723    0.1300
     42 H42        -1.2097    3.5299   64.1682 H       1  ZINC000948289723    0.1100
     43 H43        -2.7357    2.5551   63.8179 H       1  ZINC000948289723    0.1000
     44 H44        -4.0823    4.7020   63.7097 H       1  ZINC000948289723    0.1000
     45 H45        -2.5564    5.6768   64.0600 H       1  ZINC000948289723    0.1100
     46 H46        -8.7670   -0.6564   63.1128 H       1  ZINC000948289723    0.0900
     47 H47        -8.8151    1.0258   62.5023 H       1  ZINC000948289723    0.0800
     48 H48       -11.8314   -1.3098   59.4945 H       1  ZINC000948289723    0.0900
     49 H49       -11.3595   -3.0262   59.8576 H       1  ZINC000948289723    0.0800
@<TRIPOS>BOND
     1     1     2    1
     2     1    27    1
     3     1    28    1
     4     1    29    1
     5     2    26    1
     6     2     3    1
     7     2    30    1
     8     3     4    1
     9     3    31    1
    10     3    32    1
    11     4     5    1
    12     4    26    1
    13     4    33    1
    14     5     6    2
    15     5     7   am
    16     7    25    1
    17     7     8    1
    18     8     9    1
    19     8    34    1
    20     8    35    1
    21     9    10    1
    22     9    11    1
    23     9    12    1
    24    11    36    1
    25    11    37    1
    26    11    38    1
    27    12    13    1
    28    12    14    1
    29    12    25    1
    30    14    15   am
    31    14    39    1
    32    15    16    2
    33    15    17    1
    34    17    24    1
    35    17    18    2
    36    18    19    1
    37    18    40    1
    38    19    20    1
    39    19    23    2
    40    20    22    1
    41    20    21    1
    42    20    41    1
    43    21    22    1
    44    21    42    1
    45    21    43    1
    46    22    44    1
    47    22    45    1
    48    23    24    1
    49    25    46    1
    50    25    47    1
    51    26    48    1
    52    26    49    1
@<TRIPOS>SUBSTRUCTURE
     1 ZINC000948289723        1 TEMP              0 ****  ****    0 ROOT


##########                                Name:    ZINC001362451754
##########                DOCK_Rotatable_Bonds:                   6
##########                         Heavy_Atoms:                  22
##########                    Molecular_Weight:             339.846
##########                DOCK_Rotatable_Bonds:                   6
##########                       Formal_Charge:         -0.00999987
##########                     HBond_Acceptors:                   7
##########                        HBond_Donors:                   1
##########                         Heavy_Atoms:                  22
##########                          Grid_Score:          -32.295624
##########                     Grid_vdw_energy:          -31.032389
##########                      Grid_es_energy:           -1.263236
##########           Internal_energy_repulsive:           14.537754

@<TRIPOS>MOLECULE
ZINC001362451754
 40 42 1 0 0
SMALL
USER_CHARGES


@<TRIPOS>ATOM
      1 C1         -8.8913   -2.7815   60.5280 C.3     1  ZINC001362451754   -0.1700
      2 C2        -10.4157   -2.8039   60.6582 C.3     1  ZINC001362451754    0.1400
      3 H3        -10.7188   -3.5854   61.3549 H       1  ZINC001362451754    0.0800
      4 C4        -10.9201   -1.4328   61.1556 C.3     1  ZINC001362451754   -0.1000
      5 H5        -11.7758   -1.5545   61.8197 H       1  ZINC001362451754    0.1000
      6 C6         -9.7967   -0.6632   61.8532 C.3     1  ZINC001362451754    0.0900
      7 O7        -10.3016    0.5836   62.3355 O.3     1  ZINC001362451754   -0.5700
      8 C8        -11.3408   -0.7204   59.8431 C.3     1  ZINC001362451754   -0.1200
      9 C9        -11.8969   -1.8999   59.0109 C.3     1  ZINC001362451754    0.0900
     10 N10       -11.0265   -3.0426   59.3424 N.am    1  ZINC001362451754   -0.6100
     11 C11       -10.8202   -4.1244   58.5653 C.2     1  ZINC001362451754    0.6100
     12 O12       -10.0769   -5.0113   58.9419 O.2     1  ZINC001362451754   -0.5200
     13 C13       -11.4912   -4.2323   57.2665 C.2     1  ZINC001362451754   -0.2500
     14 C14       -12.7378   -4.7520   57.0591 C.2     1  ZINC001362451754   -0.0500
     15 C15       -13.1205   -4.7366   55.7388 C.2     1  ZINC001362451754   -0.1100
     16 C16       -12.2243   -4.2132   54.8941 C.2     1  ZINC001362451754   -0.2500
     17 C17       -12.4251   -4.0878   53.4058 C.3     1  ZINC001362451754    0.2100
     18 N18       -11.7500   -2.8810   52.9219 N.pl3   1  ZINC001362451754   -0.3700
     19 C19       -12.2678   -1.6340   52.9038 C.2     1  ZINC001362451754    0.0700
     20 C20       -11.3299   -0.8056   52.3874 C.2     1  ZINC001362451754   -0.1800
     21 Cl21      -11.4967    0.9064   52.1528 Cl      1  ZINC001362451754   -0.0400
     22 C22       -10.2044   -1.5743   52.0705 C.2     1  ZINC001362451754    0.0700
     23 N23       -10.4553   -2.8179   52.3905 N.2     1  ZINC001362451754   -0.2700
     24 S24       -10.8206   -3.7143   55.7257 S.3     1  ZINC001362451754    0.2300
     25 H25        -8.5982   -2.0017   59.8250 H       1  ZINC001362451754    0.0600
     26 H26        -8.4464   -2.5785   61.5021 H       1  ZINC001362451754    0.0700
     27 H27        -8.5436   -3.7482   60.1640 H       1  ZINC001362451754    0.0700
     28 H28        -9.4191   -1.2506   62.6901 H       1  ZINC001362451754    0.0500
     29 H29        -8.9888   -0.4786   61.1451 H       1  ZINC001362451754    0.0500
     30 H30        -9.6327    1.1439   62.7523 H       1  ZINC001362451754    0.3800
     31 H31       -12.1136    0.0245   60.0333 H       1  ZINC001362451754    0.0900
     32 H32       -10.4796   -0.2696   59.3498 H       1  ZINC001362451754    0.0800
     33 H33       -11.8381   -1.6746   57.9461 H       1  ZINC001362451754    0.0800
     34 H34       -12.9268   -2.1116   59.2985 H       1  ZINC001362451754    0.0800
     35 H35       -13.3589   -5.1403   57.8528 H       1  ZINC001362451754    0.1600
     36 H36       -14.0762   -5.1158   55.4080 H       1  ZINC001362451754    0.1500
     37 H37       -12.0068   -4.9625   52.9077 H       1  ZINC001362451754    0.1100
     38 H38       -13.4908   -4.0202   53.1873 H       1  ZINC001362451754    0.1100
     39 H39       -13.2526   -1.3484   53.2429 H       1  ZINC001362451754    0.1800
     40 H40        -9.2870   -1.2048   51.6364 H       1  ZINC001362451754    0.1900
@<TRIPOS>BOND
     1     1     2    1
     2     1    25    1
     3     1    26    1
     4     1    27    1
     5     2     3    1
     6     2    10    1
     7     2     4    1
     8     4     5    1
     9     4     6    1
    10     4     8    1
    11     6     7    1
    12     6    28    1
    13     6    29    1
    14     7    30    1
    15     8     9    1
    16     8    31    1
    17     8    32    1
    18     9    10    1
    19     9    33    1
    20     9    34    1
    21    10    11   am
    22    11    12    2
    23    11    13    1
    24    13    24    1
    25    13    14    2
    26    14    15    1
    27    14    35    1
    28    15    16    2
    29    15    36    1
    30    16    17    1
    31    16    24    1
    32    17    18    1
    33    17    37    1
    34    17    38    1
    35    18    23    1
    36    18    19    1
    37    19    20    2
    38    19    39    1
    39    20    21    1
    40    20    22    1
    41    22    23    2
    42    22    40    1
@<TRIPOS>SUBSTRUCTURE
     1 ZINC001362451754        1 TEMP              0 ****  ****    0 ROOT


##########                                Name:    ZINC001436455587
##########                DOCK_Rotatable_Bonds:                   9
##########                         Heavy_Atoms:                  21
##########                    Molecular_Weight:             378.693
##########                DOCK_Rotatable_Bonds:                   9
##########                       Formal_Charge:          -0.0200001
##########                     HBond_Acceptors:                   5
##########                        HBond_Donors:                   1
##########                         Heavy_Atoms:                  21
##########                          Grid_Score:          -32.284920
##########                     Grid_vdw_energy:          -32.700893
##########                      Grid_es_energy:            0.415975
##########           Internal_energy_repulsive:            6.270809

@<TRIPOS>MOLECULE
ZINC001436455587
 42 42 1 0 0
SMALL
USER_CHARGES


@<TRIPOS>ATOM
      1 C1         -9.1436    0.4271   53.0839 C.3     1  ZINC001436455587   -0.1500
      2 C2        -10.5840   -0.0320   52.8491 C.3     1  ZINC001436455587   -0.1300
      3 C3        -10.6747   -1.5468   53.0445 C.3     1  ZINC001436455587   -0.1400
      4 C4        -12.1107   -2.0089   52.7888 C.3     1  ZINC001436455587    0.0800
      5 H5        -12.8017   -1.3664   53.3348 H       1  ZINC001436455587    0.0700
      6 C6        -12.2739   -3.4539   53.2646 C.3     1  ZINC001436455587    0.1200
      7 N7        -12.4014   -3.4762   54.7238 N.am    1  ZINC001436455587   -0.7200
      8 C8        -12.8659   -4.5797   55.3428 C.2     1  ZINC001436455587    0.5200
      9 O9        -13.1768   -5.5546   54.6920 O.2     1  ZINC001436455587   -0.5100
     10 C10       -12.9988   -4.6020   56.8438 C.3     1  ZINC001436455587    0.0600
     11 H11       -12.1558   -5.1418   57.2752 H       1  ZINC001436455587    0.1000
     12 C12       -14.3036   -5.3014   57.2299 C.3     1  ZINC001436455587   -0.1800
     13 O13       -13.0112   -3.2624   57.3409 O.3     1  ZINC001436455587   -0.2700
     14 C14       -12.1117   -2.9564   58.3132 C.ar    1  ZINC001436455587    0.1600
     15 C15       -10.7524   -3.0416   58.0530 C.ar    1  ZINC001436455587   -0.2000
     16 C16        -9.8394   -2.7298   59.0424 C.ar    1  ZINC001436455587   -0.0500
     17 C17       -10.2804   -2.3331   60.2921 C.ar    1  ZINC001436455587   -0.0700
     18 Cl18       -9.1311   -1.9426   61.5332 Cl      1  ZINC001436455587   -0.0600
     19 C19       -11.6365   -2.2469   60.5543 C.ar    1  ZINC001436455587   -0.0400
     20 C20       -12.5528   -2.5528   59.5661 C.ar    1  ZINC001436455587   -0.1200
     21 Br21      -14.4058   -2.4349   59.9243 Br      1  ZINC001436455587   -0.0100
     22 O22       -12.3937   -1.9330   51.3902 O.3     1  ZINC001436455587   -0.3800
     23 C23       -13.6742   -1.3764   51.0857 C.3     1  ZINC001436455587    0.0200
     24 H24        -8.8424    0.1731   54.1003 H       1  ZINC001436455587    0.0500
     25 H25        -8.4831   -0.0711   52.3741 H       1  ZINC001436455587    0.0600
     26 H26        -9.0788    1.5062   52.9447 H       1  ZINC001436455587    0.0600
     27 H27       -11.2444    0.4660   53.5589 H       1  ZINC001436455587    0.0600
     28 H28       -10.8851    0.2218   51.8327 H       1  ZINC001436455587    0.0700
     29 H29       -10.0031   -2.0443   52.3448 H       1  ZINC001436455587    0.0800
     30 H30       -10.3881   -1.7993   54.0653 H       1  ZINC001436455587    0.0800
     31 H31       -13.1682   -3.8856   52.8150 H       1  ZINC001436455587    0.0800
     32 H32       -11.4011   -4.0351   52.9671 H       1  ZINC001436455587    0.0800
     33 H33       -12.1517   -2.6968   55.2445 H       1  ZINC001436455587    0.4000
     34 H34       -14.3998   -5.3175   58.3155 H       1  ZINC001436455587    0.0800
     35 H35       -15.1467   -4.7616   56.7985 H       1  ZINC001436455587    0.0800
     36 H36       -14.2942   -6.3233   56.8508 H       1  ZINC001436455587    0.0800
     37 H37       -10.4074   -3.3518   57.0778 H       1  ZINC001436455587    0.1500
     38 H38        -8.7807   -2.7961   58.8398 H       1  ZINC001436455587    0.1400
     39 H39       -11.9788   -1.9368   61.5305 H       1  ZINC001436455587    0.1500
     40 H40       -13.7018   -0.3339   51.4026 H       1  ZINC001436455587    0.0500
     41 H41       -13.8494   -1.4344   50.0114 H       1  ZINC001436455587    0.0900
     42 H42       -14.4480   -1.9364   51.6108 H       1  ZINC001436455587    0.0400
@<TRIPOS>BOND
     1     1     2    1
     2     1    24    1
     3     1    25    1
     4     1    26    1
     5     2     3    1
     6     2    27    1
     7     2    28    1
     8     3     4    1
     9     3    29    1
    10     3    30    1
    11     4     5    1
    12     4     6    1
    13     4    22    1
    14     6     7    1
    15     6    31    1
    16     6    32    1
    17     7     8   am
    18     7    33    1
    19     8     9    2
    20     8    10    1
    21    10    11    1
    22    10    12    1
    23    10    13    1
    24    12    34    1
    25    12    35    1
    26    12    36    1
    27    13    14    1
    28    14    20   ar
    29    14    15   ar
    30    15    16   ar
    31    15    37    1
    32    16    17   ar
    33    16    38    1
    34    17    18    1
    35    17    19   ar
    36    19    20   ar
    37    19    39    1
    38    20    21    1
    39    22    23    1
    40    23    40    1
    41    23    41    1
    42    23    42    1
@<TRIPOS>SUBSTRUCTURE
     1 ZINC001436455587        1 TEMP              0 ****  ****    0 ROOT


##########                                Name:    ZINC000965273005
##########                DOCK_Rotatable_Bonds:                   7
##########                         Heavy_Atoms:                  27
##########                    Molecular_Weight:             368.436
##########                DOCK_Rotatable_Bonds:                   7
##########                       Formal_Charge:           0.0100003
##########                     HBond_Acceptors:                   7
##########                        HBond_Donors:                   2
##########                         Heavy_Atoms:                  27
##########                          Grid_Score:          -32.234211
##########                     Grid_vdw_energy:          -31.781691
##########                      Grid_es_energy:           -0.452519
##########           Internal_energy_repulsive:           10.057096

@<TRIPOS>MOLECULE
ZINC000965273005
 51 54 1 0 0
SMALL
USER_CHARGES


@<TRIPOS>ATOM
      1 C1        -11.4090    1.6978   55.1357 C.3     1  ZINC000965273005   -0.1200
      2 C2        -10.1213    1.5284   54.3714 C.ar    1  ZINC000965273005   -0.0300
      3 C3         -8.9855    2.2001   54.7734 C.ar    1  ZINC000965273005   -0.1200
      4 C4         -7.8023    2.0457   54.0727 C.ar    1  ZINC000965273005   -0.0900
      5 C5         -7.7497    1.2175   52.9659 C.ar    1  ZINC000965273005   -0.1300
      6 C6         -8.8786    0.5399   52.5532 C.ar    1  ZINC000965273005   -0.0900
      7 C7        -10.0738    0.6870   53.2586 C.ar    1  ZINC000965273005   -0.1300
      8 C8        -11.2873   -0.0360   52.8221 C.2     1  ZINC000965273005    0.5800
      9 O9        -12.1629    0.5543   52.2202 O.2     1  ZINC000965273005   -0.5200
     10 N10       -11.4226   -1.3495   53.0916 N.am    1  ZINC000965273005   -0.6100
     11 C11       -10.4457   -2.1831   53.8157 C.3     1  ZINC000965273005    0.0900
     12 C12       -11.2767   -3.3548   54.3955 C.3     1  ZINC000965273005    0.1500
     13 H13       -10.6516   -4.2320   54.5624 H       1  ZINC000965273005    0.1200
     14 N14       -11.9570   -2.9557   55.6300 N.am    1  ZINC000965273005   -0.7100
     15 C15       -11.6571   -3.5676   56.7928 C.2     1  ZINC000965273005    0.6000
     16 O16       -10.8229   -4.4521   56.8170 O.2     1  ZINC000965273005   -0.5400
     17 C17       -12.3405   -3.1648   58.0355 C.2     1  ZINC000965273005   -0.2800
     18 C18       -13.7039   -3.1407   58.2500 C.2     1  ZINC000965273005    0.1000
     19 N19       -13.9054   -2.7151   59.5074 N.pl3   1  ZINC000965273005   -0.3600
     20 C20       -15.2086   -2.5408   60.1536 C.3     1  ZINC000965273005    0.1000
     21 N21       -12.6608   -2.4667   60.0966 N.2     1  ZINC000965273005   -0.3000
     22 C22       -11.7223   -2.7367   59.2317 C.2     1  ZINC000965273005    0.1700
     23 C23       -10.2392   -2.6053   59.4642 C.3     1  ZINC000965273005   -0.0800
     24 C24        -9.6736   -3.1838   60.7628 C.3     1  ZINC000965273005   -0.1700
     25 C25        -9.4027   -3.8859   59.4307 C.3     1  ZINC000965273005   -0.1600
     26 C26       -12.2969   -3.6077   53.2541 C.3     1  ZINC000965273005    0.0900
     27 H27       -11.8606   -4.2386   52.4797 H       1  ZINC000965273005    0.0900
     28 O28       -13.4942   -4.1953   53.7672 O.3     1  ZINC000965273005   -0.5500
     29 C29       -12.5716   -2.1872   52.7178 C.3     1  ZINC000965273005    0.0600
     30 H30       -11.5084    0.8922   55.8633 H       1  ZINC000965273005    0.0800
     31 H31       -11.4006    2.6565   55.6540 H       1  ZINC000965273005    0.0700
     32 H32       -12.2497    1.6670   54.4425 H       1  ZINC000965273005    0.0700
     33 H33        -9.0199    2.8481   55.6367 H       1  ZINC000965273005    0.1300
     34 H34        -6.9160    2.5743   54.3912 H       1  ZINC000965273005    0.1300
     35 H35        -6.8231    1.1013   52.4234 H       1  ZINC000965273005    0.1300
     36 H36        -8.8363   -0.1061   51.6887 H       1  ZINC000965273005    0.1300
     37 H37        -9.6861   -2.5593   53.1304 H       1  ZINC000965273005    0.0900
     38 H38        -9.9824   -1.6121   54.6204 H       1  ZINC000965273005    0.0900
     39 H39       -12.6234   -2.2510   55.6106 H       1  ZINC000965273005    0.4000
     40 H40       -14.4681   -3.4135   57.5373 H       1  ZINC000965273005    0.1800
     41 H41       -15.4959   -3.4686   60.6483 H       1  ZINC000965273005    0.0800
     42 H42       -15.1443   -1.7406   60.8910 H       1  ZINC000965273005    0.1000
     43 H43       -15.9551   -2.2833   59.4023 H       1  ZINC000965273005    0.0900
     44 H44        -9.7815   -1.6949   59.0771 H       1  ZINC000965273005    0.1400
     45 H45        -8.8438   -2.6540   61.2304 H       1  ZINC000965273005    0.1000
     46 H46       -10.3744   -3.6596   61.4490 H       1  ZINC000965273005    0.1000
     47 H47        -9.9250   -4.8235   59.2405 H       1  ZINC000965273005    0.0900
     48 H48        -8.3945   -3.8179   59.0219 H       1  ZINC000965273005    0.1000
     49 H49       -14.0734   -4.5655   53.0871 H       1  ZINC000965273005    0.3900
     50 H50       -13.4847   -1.7927   53.1636 H       1  ZINC000965273005    0.0800
     51 H51       -12.6676   -2.2129   51.6323 H       1  ZINC000965273005    0.0800
@<TRIPOS>BOND
     1     1     2    1
     2     1    30    1
     3     1    31    1
     4     1    32    1
     5     2     7   ar
     6     2     3   ar
     7     3     4   ar
     8     3    33    1
     9     4     5   ar
    10     4    34    1
    11     5     6   ar
    12     5    35    1
    13     6     7   ar
    14     6    36    1
    15     7     8    1
    16     8     9    2
    17     8    10   am
    18    10    29    1
    19    10    11    1
    20    11    12    1
    21    11    37    1
    22    11    38    1
    23    12    13    1
    24    12    14    1
    25    12    26    1
    26    14    15   am
    27    14    39    1
    28    15    16    2
    29    15    17    1
    30    17    22    1
    31    17    18    2
    32    18    19    1
    33    18    40    1
    34    19    20    1
    35    19    21    1
    36    20    41    1
    37    20    42    1
    38    20    43    1
    39    21    22    2
    40    22    23    1
    41    23    25    1
    42    23    24    1
    43    23    44    1
    44    24    25    1
    45    24    45    1
    46    24    46    1
    47    25    47    1
    48    25    48    1
    49    26    27    1
    50    26    28    1
    51    26    29    1
    52    28    49    1
    53    29    50    1
    54    29    51    1
@<TRIPOS>SUBSTRUCTURE
     1 ZINC000965273005        1 TEMP              0 ****  ****    0 ROOT


##########                                Name:    ZINC000543625960
##########                DOCK_Rotatable_Bonds:                   8
##########                         Heavy_Atoms:                  29
##########                    Molecular_Weight:             416.544
##########                DOCK_Rotatable_Bonds:                   8
##########                       Formal_Charge:           -0.010001
##########                     HBond_Acceptors:                   8
##########                        HBond_Donors:                   2
##########                         Heavy_Atoms:                  29
##########                          Grid_Score:          -32.225498
##########                     Grid_vdw_energy:          -31.581934
##########                      Grid_es_energy:           -0.643565
##########           Internal_energy_repulsive:           16.631811

@<TRIPOS>MOLECULE
ZINC000543625960
 57 59 1 0 0
SMALL
USER_CHARGES


@<TRIPOS>ATOM
      1 C1        -15.0698   -1.5767   51.5867 C.3     1  ZINC000543625960   -0.1500
      2 C2        -14.6427   -1.1277   52.9855 C.3     1  ZINC000543625960   -0.1300
      3 C3        -13.1764   -1.4996   53.2150 C.3     1  ZINC000543625960    0.1500
      4 H4        -12.9357   -1.3927   54.2727 H       1  ZINC000543625960    0.0800
      5 C5        -12.2801   -0.5724   52.3917 C.3     1  ZINC000543625960   -0.1700
      6 N6        -12.9541   -2.8874   52.8015 N.am    1  ZINC000543625960   -1.1100
      7 S7        -11.9551   -3.8658   53.6885 S.o2    1  ZINC000543625960    2.7000
      8 O8        -12.0669   -5.1669   53.1283 O.2     1  ZINC000543625960   -0.9600
      9 O9        -10.7193   -3.1747   53.8080 O.2     1  ZINC000543625960   -0.9500
     10 C10       -12.6296   -3.9640   55.3134 C.ar    1  ZINC000543625960   -0.6600
     11 C11       -13.5394   -4.9575   55.6245 C.ar    1  ZINC000543625960   -0.0400
     12 C12       -14.0711   -5.0379   56.8987 C.ar    1  ZINC000543625960   -0.1200
     13 C13       -13.6946   -4.1255   57.8645 C.ar    1  ZINC000543625960   -0.0600
     14 C14       -12.7805   -3.1266   57.5552 C.ar    1  ZINC000543625960    0.1500
     15 N15       -12.3967   -2.2005   58.5317 N.am    1  ZINC000543625960   -0.6800
     16 C16       -13.2931   -1.3147   59.0095 C.2     1  ZINC000543625960    0.7200
     17 O17       -14.4351   -1.3203   58.5923 O.2     1  ZINC000543625960   -0.5600
     18 N18       -12.9236   -0.4227   59.9500 N.am    1  ZINC000543625960   -0.6300
     19 C19       -13.7979    0.5973   60.5572 C.3     1  ZINC000543625960    0.0900
     20 C20       -13.1498    0.9092   61.9291 C.3     1  ZINC000543625960   -0.1000
     21 H21       -13.4198    1.9085   62.2706 H       1  ZINC000543625960    0.1000
     22 C22       -13.5337   -0.1451   62.9694 C.3     1  ZINC000543625960   -0.1500
     23 C23       -11.6389    0.8281   61.5856 C.3     1  ZINC000543625960   -0.1200
     24 C24       -11.5839   -0.3098   60.5446 C.3     1  ZINC000543625960    0.2000
     25 H25       -11.3093   -1.2452   61.0323 H       1  ZINC000543625960    0.0900
     26 C26       -10.5780    0.0238   59.4733 C.ar    1  ZINC000543625960   -0.1400
     27 C27       -10.7171    1.1750   58.7137 C.ar    1  ZINC000543625960   -0.0600
     28 C28        -9.7671    1.4416   57.7393 C.ar    1  ZINC000543625960   -0.1700
     29 C29        -8.7208    0.5573   57.5590 C.ar    1  ZINC000543625960    0.1000
     30 N30        -8.6202   -0.5288   58.3004 N.ar    1  ZINC000543625960   -0.4800
     31 C31        -9.5017   -0.8115   59.2394 C.ar    1  ZINC000543625960    0.1200
     32 C32       -12.2445   -3.0518   56.2766 C.ar    1  ZINC000543625960   -0.0500
     33 H33       -16.1144   -1.3117   51.4233 H       1  ZINC000543625960    0.0600
     34 H34       -14.4483   -1.0816   50.8405 H       1  ZINC000543625960    0.0600
     35 H35       -14.9511   -2.6567   51.4997 H       1  ZINC000543625960    0.0500
     36 H36       -14.7614   -0.0476   53.0725 H       1  ZINC000543625960    0.0700
     37 H37       -15.2642   -1.6228   53.7317 H       1  ZINC000543625960    0.0800
     38 H38       -12.4455    0.4601   52.6995 H       1  ZINC000543625960    0.0700
     39 H39       -11.2356   -0.8374   52.5553 H       1  ZINC000543625960    0.0700
     40 H40       -12.5208   -0.6793   51.3340 H       1  ZINC000543625960    0.0600
     41 H41       -13.3921   -3.2331   52.0080 H       1  ZINC000543625960    0.4200
     42 H42       -13.8358   -5.6720   54.8709 H       1  ZINC000543625960    0.1400
     43 H43       -14.7819   -5.8149   57.1385 H       1  ZINC000543625960    0.1400
     44 H44       -14.1106   -4.1884   58.8591 H       1  ZINC000543625960    0.1400
     45 H45       -11.4857   -2.1961   58.8647 H       1  ZINC000543625960    0.4100
     46 H46       -13.8230    1.4933   59.9370 H       1  ZINC000543625960    0.0700
     47 H47       -14.8042    0.2014   60.6942 H       1  ZINC000543625960    0.0800
     48 H48       -13.2153   -1.1288   62.6244 H       1  ZINC000543625960    0.0600
     49 H49       -13.0446    0.0838   63.9163 H       1  ZINC000543625960    0.0600
     50 H50       -14.6148   -0.1412   63.1087 H       1  ZINC000543625960    0.0600
     51 H51       -11.2904    1.7668   61.1548 H       1  ZINC000543625960    0.0800
     52 H52       -11.0558    0.5681   62.4690 H       1  ZINC000543625960    0.0900
     53 H53       -11.5458    1.8481   58.8767 H       1  ZINC000543625960    0.1300
     54 H54        -9.8443    2.3292   57.1287 H       1  ZINC000543625960    0.1400
     55 H55        -7.9771    0.7576   56.8020 H       1  ZINC000543625960    0.1600
     56 H56        -9.3862   -1.7105   59.8266 H       1  ZINC000543625960    0.1400
     57 H57       -11.5335   -2.2761   56.0329 H       1  ZINC000543625960    0.1400
@<TRIPOS>BOND
     1     1     2    1
     2     1    33    1
     3     1    34    1
     4     1    35    1
     5     2     3    1
     6     2    36    1
     7     2    37    1
     8     3     4    1
     9     3     5    1
    10     3     6    1
    11     5    38    1
    12     5    39    1
    13     5    40    1
    14     6     7   am
    15     6    41    1
    16     7     8    2
    17     7     9    2
    18     7    10    1
    19    10    32   ar
    20    10    11   ar
    21    11    12   ar
    22    11    42    1
    23    12    13   ar
    24    12    43    1
    25    13    14   ar
    26    13    44    1
    27    14    15    1
    28    14    32   ar
    29    15    16   am
    30    15    45    1
    31    16    17    2
    32    16    18   am
    33    18    24    1
    34    18    19    1
    35    19    20    1
    36    19    46    1
    37    19    47    1
    38    20    21    1
    39    20    22    1
    40    20    23    1
    41    22    48    1
    42    22    49    1
    43    22    50    1
    44    23    24    1
    45    23    51    1
    46    23    52    1
    47    24    25    1
    48    24    26    1
    49    26    31   ar
    50    26    27   ar
    51    27    28   ar
    52    27    53    1
    53    28    29   ar
    54    28    54    1
    55    29    30   ar
    56    29    55    1
    57    30    31   ar
    58    31    56    1
    59    32    57    1
@<TRIPOS>SUBSTRUCTURE
     1 ZINC000543625960        1 TEMP              0 ****  ****    0 ROOT


##########                                Name:    ZINC000151303733
##########                DOCK_Rotatable_Bonds:                   7
##########                         Heavy_Atoms:                  26
##########                    Molecular_Weight:             369.444
##########                DOCK_Rotatable_Bonds:                   7
##########                       Formal_Charge:        -1.93715e-07
##########                     HBond_Acceptors:                   7
##########                        HBond_Donors:                   2
##########                         Heavy_Atoms:                  26
##########                          Grid_Score:          -32.214874
##########                     Grid_vdw_energy:          -31.493713
##########                      Grid_es_energy:           -0.721161
##########           Internal_energy_repulsive:            8.971272

@<TRIPOS>MOLECULE
ZINC000151303733
 45 48 1 0 0
SMALL
USER_CHARGES


@<TRIPOS>ATOM
      1 C1        -15.4014   -2.1051   52.3369 C.3     1  ZINC000151303733   -0.1000
      2 C2        -15.1081   -1.7730   50.8966 C.2     1  ZINC000151303733   -0.1200
      3 C3        -16.0658   -1.6715   49.9742 C.2     1  ZINC000151303733   -0.2000
      4 S4        -15.3504   -1.2739   48.4176 S.3     1  ZINC000151303733    0.1200
      5 C5        -13.7397   -1.2665   49.1236 C.2     1  ZINC000151303733   -0.2400
      6 C6        -13.8211   -1.5438   50.4301 C.2     1  ZINC000151303733    0.1200
      7 N7        -12.6893   -1.6077   51.2640 N.am    1  ZINC000151303733   -0.6400
      8 C8        -12.2495   -0.4979   51.8896 C.2     1  ZINC000151303733    0.5100
      9 O9        -12.8293    0.5562   51.7338 O.2     1  ZINC000151303733   -0.5100
     10 C10       -11.0375   -0.5664   52.7825 C.3     1  ZINC000151303733    0.1000
     11 N11       -11.4621   -0.8008   54.1649 N.am    1  ZINC000151303733   -0.7100
     12 C12       -11.4552   -2.0507   54.6692 C.2     1  ZINC000151303733    0.5200
     13 O13       -11.0989   -2.9814   53.9781 O.2     1  ZINC000151303733   -0.5100
     14 C14       -11.8902   -2.2915   56.0918 C.3     1  ZINC000151303733    0.1600
     15 H15       -12.8025   -1.7340   56.3036 H       1  ZINC000151303733    0.1300
     16 C16       -10.7970   -1.8783   57.0451 C.ar    1  ZINC000151303733   -0.0900
     17 C17       -10.1689   -0.6809   57.2965 C.ar    1  ZINC000151303733   -0.0900
     18 C18        -9.1739   -0.6100   58.2576 C.ar    1  ZINC000151303733   -0.0800
     19 C19        -8.8096   -1.7409   58.9663 C.ar    1  ZINC000151303733   -0.1200
     20 C20        -9.4334   -2.9472   58.7218 C.ar    1  ZINC000151303733   -0.0400
     21 C21       -10.4369   -3.0265   57.7549 C.ar    1  ZINC000151303733   -0.1500
     22 C22       -11.2702   -4.1463   57.2768 C.2     1  ZINC000151303733    0.5600
     23 O23       -11.2060   -5.2868   57.6922 O.2     1  ZINC000151303733   -0.5100
     24 N24       -12.1118   -3.7247   56.3154 N.am    1  ZINC000151303733   -0.5700
     25 C25       -13.0871   -4.5592   55.6092 C.3     1  ZINC000151303733    0.0900
     26 C26       -14.2810   -5.0821   56.4105 C.3     1  ZINC000151303733   -0.1800
     27 C27       -14.4809   -3.9729   55.3758 C.3     1  ZINC000151303733   -0.1900
     28 H28       -15.5743   -1.1844   52.8942 H       1  ZINC000151303733    0.0700
     29 H29       -16.2895   -2.7348   52.3911 H       1  ZINC000151303733    0.0700
     30 H30       -14.5526   -2.6364   52.7675 H       1  ZINC000151303733    0.0600
     31 H31       -17.1211   -1.8126   50.1554 H       1  ZINC000151303733    0.1700
     32 H32       -12.8251   -1.0647   48.5857 H       1  ZINC000151303733    0.2000
     33 H33       -12.2256   -2.4505   51.3884 H       1  ZINC000151303733    0.4200
     34 H34       -10.3923   -1.3825   52.4573 H       1  ZINC000151303733    0.1100
     35 H35       -10.4903    0.3744   52.7251 H       1  ZINC000151303733    0.1100
     36 H36       -11.7482   -0.0565   54.7172 H       1  ZINC000151303733    0.4100
     37 H37       -10.4509    0.2036   56.7446 H       1  ZINC000151303733    0.1300
     38 H38        -8.6810    0.3306   58.4540 H       1  ZINC000151303733    0.1400
     39 H39        -8.0328   -1.6793   59.7141 H       1  ZINC000151303733    0.1400
     40 H40        -9.1461   -3.8276   59.2776 H       1  ZINC000151303733    0.1400
     41 H41       -12.6776   -5.2076   54.8346 H       1  ZINC000151303733    0.1400
     42 H42       -14.6572   -6.0748   56.1632 H       1  ZINC000151303733    0.1000
     43 H43       -14.3408   -4.8053   57.4630 H       1  ZINC000151303733    0.1300
     44 H44       -14.6722   -2.9663   55.7477 H       1  ZINC000151303733    0.1000
     45 H45       -14.9885   -4.2358   54.4478 H       1  ZINC000151303733    0.1000
@<TRIPOS>BOND
     1     1     2    1
     2     1    28    1
     3     1    29    1
     4     1    30    1
     5     2     6    1
     6     2     3    2
     7     3     4    1
     8     3    31    1
     9     4     5    1
    10     5     6    2
    11     5    32    1
    12     6     7    1
    13     7     8   am
    14     7    33    1
    15     8     9    2
    16     8    10    1
    17    10    11    1
    18    10    34    1
    19    10    35    1
    20    11    12   am
    21    11    36    1
    22    12    13    2
    23    12    14    1
    24    14    15    1
    25    14    24    1
    26    14    16    1
    27    16    21   ar
    28    16    17   ar
    29    17    18   ar
    30    17    37    1
    31    18    19   ar
    32    18    38    1
    33    19    20   ar
    34    19    39    1
    35    20    21   ar
    36    20    40    1
    37    21    22    1
    38    22    23    2
    39    22    24   am
    40    24    25    1
    41    25    27    1
    42    25    26    1
    43    25    41    1
    44    26    27    1
    45    26    42    1
    46    26    43    1
    47    27    44    1
    48    27    45    1
@<TRIPOS>SUBSTRUCTURE
     1 ZINC000151303733        1 TEMP              0 ****  ****    0 ROOT


##########                                Name:    ZINC000573150059
##########                DOCK_Rotatable_Bonds:                   7
##########                         Heavy_Atoms:                  23
##########                    Molecular_Weight:             378.269
##########                DOCK_Rotatable_Bonds:                   7
##########                       Formal_Charge:        -2.98023e-07
##########                     HBond_Acceptors:                   5
##########                        HBond_Donors:                   2
##########                         Heavy_Atoms:                  23
##########                          Grid_Score:          -32.205532
##########                     Grid_vdw_energy:          -29.951660
##########                      Grid_es_energy:           -2.253872
##########           Internal_energy_repulsive:            6.803752

@<TRIPOS>MOLECULE
ZINC000573150059
 43 44 1 0 0
SMALL
USER_CHARGES


@<TRIPOS>ATOM
      1 C1         -7.3580   -0.3845   51.3784 C.3     1  ZINC000573150059    0.0300
      2 O2         -8.1644    0.1505   52.4298 O.3     1  ZINC000573150059   -0.3600
      3 C3         -7.6988    1.4011   52.9407 C.3     1  ZINC000573150059    0.0700
      4 H4         -6.6128    1.3751   53.0306 H       1  ZINC000573150059    0.0900
      5 C5         -8.1047    2.5253   51.9856 C.3     1  ZINC000573150059   -0.1700
      6 C6         -8.3092    1.6486   54.2961 C.2     1  ZINC000573150059    0.5100
      7 O7         -9.4498    2.0520   54.3831 O.2     1  ZINC000573150059   -0.4900
      8 N8         -7.5878    1.4219   55.4117 N.am    1  ZINC000573150059   -0.6700
      9 C9         -8.1546    1.6517   56.6701 C.ar    1  ZINC000573150059    0.1900
     10 C10        -8.0552    2.9061   57.2588 C.ar    1  ZINC000573150059   -0.2000
     11 C11        -8.6146    3.1341   58.5016 C.ar    1  ZINC000573150059   -0.0500
     12 C12        -9.2747    2.1166   59.1625 C.ar    1  ZINC000573150059   -0.2200
     13 C13        -9.3781    0.8594   58.5789 C.ar    1  ZINC000573150059    0.2400
     14 N14       -10.0460   -0.1690   59.2475 N.pl3   1  ZINC000573150059   -0.7300
     15 C15        -9.5011   -1.5288   59.2304 C.3     1  ZINC000573150059    0.2000
     16 H16        -8.5778   -1.5429   58.6514 H       1  ZINC000573150059    0.1000
     17 C17        -9.2115   -1.9801   60.6634 C.3     1  ZINC000573150059   -0.1700
     18 C18       -10.5026   -2.4634   58.6021 C.ar    1  ZINC000573150059    0.1400
     19 C19       -11.8266   -2.4089   58.9941 C.ar    1  ZINC000573150059   -0.1600
     20 C20       -12.7405   -3.2726   58.4099 C.ar    1  ZINC000573150059   -0.0400
     21 C21       -12.2857   -4.1632   57.4486 C.ar    1  ZINC000573150059   -0.1500
     22 Br22      -13.4829   -5.3661   56.6146 Br      1  ZINC000573150059   -0.0300
     23 C23       -10.9452   -4.1596   57.1076 C.ar    1  ZINC000573150059    0.1400
     24 N24       -10.1060   -3.3199   57.6811 N.ar    1  ZINC000573150059   -0.4700
     25 C25        -8.8214    0.6286   57.3289 C.ar    1  ZINC000573150059   -0.1900
     26 H26        -7.3375    0.3165   50.5438 H       1  ZINC000573150059    0.0500
     27 H27        -6.3436   -0.5440   51.7438 H       1  ZINC000573150059    0.0400
     28 H28        -7.7778   -1.3336   51.0454 H       1  ZINC000573150059    0.0900
     29 H29        -9.1907    2.5512   51.8957 H       1  ZINC000573150059    0.0700
     30 H30        -7.7495    3.4792   52.3753 H       1  ZINC000573150059    0.0700
     31 H31        -7.6632    2.3463   51.0052 H       1  ZINC000573150059    0.0700
     32 H32        -6.6756    1.0992   55.3422 H       1  ZINC000573150059    0.4100
     33 H33        -7.5398    3.7039   56.7446 H       1  ZINC000573150059    0.1200
     34 H34        -8.5354    4.1101   58.9572 H       1  ZINC000573150059    0.1300
     35 H35        -9.7106    2.2979   60.1338 H       1  ZINC000573150059    0.1200
     36 H36       -10.8707    0.0172   59.7231 H       1  ZINC000573150059    0.4100
     37 H37       -10.1349   -1.9660   61.2424 H       1  ZINC000573150059    0.0600
     38 H38        -8.8062   -2.9918   60.6507 H       1  ZINC000573150059    0.0700
     39 H39        -8.4872   -1.3041   61.1179 H       1  ZINC000573150059    0.0700
     40 H40       -12.1455   -1.7025   59.7462 H       1  ZINC000573150059    0.1500
     41 H41       -13.7815   -3.2526   58.6967 H       1  ZINC000573150059    0.1500
     42 H42       -10.5825   -4.8499   56.3604 H       1  ZINC000573150059    0.1700
     43 H43        -8.9006   -0.3472   56.8730 H       1  ZINC000573150059    0.1400
@<TRIPOS>BOND
     1     1     2    1
     2     1    26    1
     3     1    27    1
     4     1    28    1
     5     2     3    1
     6     3     4    1
     7     3     5    1
     8     3     6    1
     9     5    29    1
    10     5    30    1
    11     5    31    1
    12     6     7    2
    13     6     8   am
    14     8     9    1
    15     8    32    1
    16     9    25   ar
    17     9    10   ar
    18    10    11   ar
    19    10    33    1
    20    11    12   ar
    21    11    34    1
    22    12    13   ar
    23    12    35    1
    24    13    14    1
    25    13    25   ar
    26    14    15    1
    27    14    36    1
    28    15    16    1
    29    15    17    1
    30    15    18    1
    31    17    37    1
    32    17    38    1
    33    17    39    1
    34    18    24   ar
    35    18    19   ar
    36    19    20   ar
    37    19    40    1
    38    20    21   ar
    39    20    41    1
    40    21    22    1
    41    21    23   ar
    42    23    24   ar
    43    23    42    1
    44    25    43    1
@<TRIPOS>SUBSTRUCTURE
     1 ZINC000573150059        1 TEMP              0 ****  ****    0 ROOT


##########                                Name:    ZINC001087843226
##########                DOCK_Rotatable_Bonds:                   6
##########                         Heavy_Atoms:                  27
##########                    Molecular_Weight:             368.479
##########                DOCK_Rotatable_Bonds:                   6
##########                       Formal_Charge:        -4.47035e-07
##########                     HBond_Acceptors:                   6
##########                        HBond_Donors:                   1
##########                         Heavy_Atoms:                  27
##########                          Grid_Score:          -32.203716
##########                     Grid_vdw_energy:          -31.344126
##########                      Grid_es_energy:           -0.859589
##########           Internal_energy_repulsive:           27.524807

@<TRIPOS>MOLECULE
ZINC001087843226
 55 58 1 0 0
SMALL
USER_CHARGES


@<TRIPOS>ATOM
      1 C1         -9.8041   -4.1325   58.3629 C.3     1  ZINC001087843226   -0.1500
      2 C2        -10.6436   -3.7818   57.1328 C.3     1  ZINC001087843226   -0.1500
      3 C3        -10.9900   -2.2918   57.1596 C.3     1  ZINC001087843226    0.0700
      4 H4        -10.0760   -1.6995   57.2038 H       1  ZINC001087843226    0.1000
      5 C5        -11.8767   -1.9808   58.3838 C.3     1  ZINC001087843226    0.1300
      6 H6        -12.3972   -2.8774   58.7203 H       1  ZINC001087843226    0.1000
      7 N7        -11.0775   -1.4095   59.4706 N.am    1  ZINC001087843226   -0.7200
      8 C8        -11.5235   -1.4737   60.7407 C.2     1  ZINC001087843226    0.5600
      9 O9        -12.5896   -2.0043   60.9844 O.2     1  ZINC001087843226   -0.5300
     10 C10       -10.7161   -0.8987   61.8377 C.ar    1  ZINC001087843226   -0.1400
     11 C11        -9.4003   -1.3185   62.0302 C.ar    1  ZINC001087843226   -0.0800
     12 C12        -8.6519   -0.7782   63.0556 C.ar    1  ZINC001087843226   -0.1300
     13 C13        -9.2048    0.1761   63.8888 C.ar    1  ZINC001087843226   -0.0400
     14 C14        -8.3800    0.7611   65.0062 C.3     1  ZINC001087843226   -0.1200
     15 C15       -10.5122    0.5997   63.7044 C.ar    1  ZINC001087843226   -0.1100
     16 C16       -11.2690    0.0708   62.6798 C.ar    1  ZINC001087843226   -0.0300
     17 C17       -12.6504    0.6894   62.6895 C.3     1  ZINC001087843226   -0.0800
     18 C18       -12.7975    1.3262   64.0879 C.3     1  ZINC001087843226   -0.1200
     19 C19       -11.3296    1.6164   64.4728 C.3     1  ZINC001087843226   -0.0800
     20 C20       -12.8828   -0.9374   57.8305 C.3     1  ZINC001087843226   -0.1400
     21 C21       -13.0929   -1.4431   56.3815 C.3     1  ZINC001087843226    0.0400
     22 N22       -11.7615   -1.9344   55.9551 N.3     1  ZINC001087843226   -0.5100
     23 C23       -11.8898   -3.0855   55.0514 C.3     1  ZINC001087843226    0.1100
     24 C24       -12.6757   -2.6809   53.8309 C.2     1  ZINC001087843226    0.0800
     25 N25       -13.9711   -2.7057   53.7295 N.2     1  ZINC001087843226   -0.2700
     26 O26       -14.3039   -2.2502   52.4278 O.3     1  ZINC001087843226    0.0300
     27 N27       -13.0759   -1.9574   51.7800 N.2     1  ZINC001087843226   -0.2800
     28 C28       -12.1209   -2.2112   52.6240 C.2     1  ZINC001087843226    0.0900
     29 C29       -10.6488   -2.0399   52.3506 C.3     1  ZINC001087843226   -0.0900
     30 H30        -9.6154   -5.2059   58.3800 H       1  ZINC001087843226    0.0600
     31 H31        -8.8554   -3.5974   58.3198 H       1  ZINC001087843226    0.0600
     32 H32       -10.3433   -3.8439   59.2652 H       1  ZINC001087843226    0.0600
     33 H33       -10.0765   -4.0068   56.2296 H       1  ZINC001087843226    0.0800
     34 H34       -11.5622   -4.3685   57.1407 H       1  ZINC001087843226    0.0700
     35 H35       -10.2273   -0.9849   59.2759 H       1  ZINC001087843226    0.4000
     36 H36        -8.9687   -2.0644   61.3792 H       1  ZINC001087843226    0.1300
     37 H37        -7.6328   -1.1015   63.2077 H       1  ZINC001087843226    0.1300
     38 H38        -7.8523    1.6435   64.6446 H       1  ZINC001087843226    0.0800
     39 H39        -9.0338    1.0416   65.8319 H       1  ZINC001087843226    0.0700
     40 H40        -7.6573    0.0211   65.3501 H       1  ZINC001087843226    0.0700
     41 H41       -12.7281    1.4534   61.9159 H       1  ZINC001087843226    0.0800
     42 H42       -13.4097   -0.0784   62.5417 H       1  ZINC001087843226    0.0900
     43 H43       -13.3720    2.2509   64.0342 H       1  ZINC001087843226    0.0800
     44 H44       -13.2536    0.6252   64.7869 H       1  ZINC001087843226    0.0700
     45 H45       -11.1857    1.4801   65.5446 H       1  ZINC001087843226    0.0800
     46 H46       -11.0549    2.6296   64.1793 H       1  ZINC001087843226    0.0800
     47 H47       -13.8171   -0.9604   58.3915 H       1  ZINC001087843226    0.0800
     48 H48       -12.4503    0.0631   57.8361 H       1  ZINC001087843226    0.0800
     49 H49       -13.8214   -2.2538   56.3644 H       1  ZINC001087843226    0.0600
     50 H50       -13.4183   -0.6259   55.7378 H       1  ZINC001087843226    0.0800
     51 H51       -10.8982   -3.4228   54.7497 H       1  ZINC001087843226    0.1200
     52 H52       -12.4081   -3.8949   55.5655 H       1  ZINC001087843226    0.0700
     53 H53       -10.3222   -1.0664   52.7163 H       1  ZINC001087843226    0.1000
     54 H54       -10.0909   -2.8254   52.8604 H       1  ZINC001087843226    0.0900
     55 H55       -10.4688   -2.1041   51.2775 H       1  ZINC001087843226    0.0900
@<TRIPOS>BOND
     1     1     2    1
     2     1    30    1
     3     1    31    1
     4     1    32    1
     5     2     3    1
     6     2    33    1
     7     2    34    1
     8     3     4    1
     9     3    22    1
    10     3     5    1
    11     5     6    1
    12     5     7    1
    13     5    20    1
    14     7     8   am
    15     7    35    1
    16     8     9    2
    17     8    10    1
    18    10    16   ar
    19    10    11   ar
    20    11    12   ar
    21    11    36    1
    22    12    13   ar
    23    12    37    1
    24    13    14    1
    25    13    15   ar
    26    14    38    1
    27    14    39    1
    28    14    40    1
    29    15    19    1
    30    15    16   ar
    31    16    17    1
    32    17    18    1
    33    17    41    1
    34    17    42    1
    35    18    19    1
    36    18    43    1
    37    18    44    1
    38    19    45    1
    39    19    46    1
    40    20    21    1
    41    20    47    1
    42    20    48    1
    43    21    22    1
    44    21    49    1
    45    21    50    1
    46    22    23    1
    47    23    24    1
    48    23    51    1
    49    23    52    1
    50    24    28    1
    51    24    25    2
    52    25    26    1
    53    26    27    1
    54    27    28    2
    55    28    29    1
    56    29    53    1
    57    29    54    1
    58    29    55    1
@<TRIPOS>SUBSTRUCTURE
     1 ZINC001087843226        1 TEMP              0 ****  ****    0 ROOT


##########                                Name:    ZINC000470948647
##########                DOCK_Rotatable_Bonds:                   6
##########                         Heavy_Atoms:                  29
##########                    Molecular_Weight:             412.556
##########                DOCK_Rotatable_Bonds:                   6
##########                       Formal_Charge:           0.0100001
##########                     HBond_Acceptors:                   7
##########                        HBond_Donors:                   1
##########                         Heavy_Atoms:                  29
##########                          Grid_Score:          -32.193760
##########                     Grid_vdw_energy:          -31.678423
##########                      Grid_es_energy:           -0.515336
##########           Internal_energy_repulsive:           21.083202

@<TRIPOS>MOLECULE
ZINC000470948647
 57 60 1 0 0
SMALL
USER_CHARGES


@<TRIPOS>ATOM
      1 C1        -17.4846   -1.9185   58.3941 C.3     1  ZINC000470948647   -0.1100
      2 C2        -16.1176   -1.6060   58.9461 C.ar    1  ZINC000470948647   -0.1000
      3 C3        -15.0808   -2.5034   58.7699 C.ar    1  ZINC000470948647   -0.1100
      4 C4        -13.8266   -2.2199   59.2747 C.ar    1  ZINC000470948647   -0.1100
      5 C5        -13.6078   -1.0320   59.9594 C.ar    1  ZINC000470948647    0.1400
      6 N6        -12.3385   -0.7416   60.4717 N.am    1  ZINC000470948647   -0.6700
      7 C7        -11.5797    0.2099   59.8927 C.2     1  ZINC000470948647    0.5100
      8 O8        -11.9971    0.8146   58.9276 O.2     1  ZINC000470948647   -0.4800
      9 C9        -10.2126    0.5228   60.4443 C.3     1  ZINC000470948647    0.1200
     10 H10        -9.6439    1.0598   59.6853 H       1  ZINC000470948647    0.1200
     11 C11       -10.3730    1.4339   61.6825 C.3     1  ZINC000470948647   -0.0700
     12 S12       -10.2582    0.2072   63.0518 S.3     1  ZINC000470948647   -0.2500
     13 C13        -9.0955   -0.8905   62.1400 C.3     1  ZINC000470948647    0.1600
     14 N14        -9.5309   -0.7277   60.7421 N.am    1  ZINC000470948647   -0.6000
     15 C15        -9.3116   -1.6689   59.8026 C.2     1  ZINC000470948647    0.6300
     16 O16        -8.7362   -2.6987   60.0965 O.2     1  ZINC000470948647   -0.5100
     17 C17        -9.7705   -1.4493   58.4159 C.2     1  ZINC000470948647   -0.0100
     18 N18       -10.6122   -2.2051   57.7393 N.2     1  ZINC000470948647   -0.2700
     19 N19       -10.7897   -1.7224   56.5621 N.pl3   1  ZINC000470948647   -0.2700
     20 C20       -11.6619   -2.3063   55.5399 C.3     1  ZINC000470948647    0.1500
     21 C21       -10.9947   -2.1820   54.1686 C.3     1  ZINC000470948647   -0.1300
     22 C22       -11.9055   -2.7919   53.1011 C.3     1  ZINC000470948647   -0.1200
     23 C23       -12.1462   -4.2689   53.4193 C.3     1  ZINC000470948647   -0.1300
     24 C24       -12.8134   -4.3931   54.7906 C.3     1  ZINC000470948647   -0.1200
     25 C25       -11.9027   -3.7833   55.8580 C.3     1  ZINC000470948647   -0.1300
     26 C26       -10.0570   -0.5995   56.4023 C.2     1  ZINC000470948647   -0.0100
     27 C27        -9.3951   -0.3842   57.5634 C.2     1  ZINC000470948647   -0.1700
     28 C28       -14.6514   -0.1323   60.1345 C.ar    1  ZINC000470948647   -0.1100
     29 C29       -14.4181    1.1583   60.8766 C.3     1  ZINC000470948647   -0.1100
     30 C30       -15.9016   -0.4195   59.6231 C.ar    1  ZINC000470948647   -0.1000
     31 H31       -17.5618   -1.5351   57.3765 H       1  ZINC000470948647    0.0700
     32 H32       -17.6360   -2.9979   58.3881 H       1  ZINC000470948647    0.0700
     33 H33       -18.2447   -1.4484   59.0181 H       1  ZINC000470948647    0.0700
     34 H34       -15.2516   -3.4272   58.2371 H       1  ZINC000470948647    0.1200
     35 H35       -13.0172   -2.9217   59.1373 H       1  ZINC000470948647    0.1400
     36 H36       -12.0046   -1.2251   61.2435 H       1  ZINC000470948647    0.4100
     37 H37        -9.5638    2.1620   61.7402 H       1  ZINC000470948647    0.1200
     38 H38       -11.3438    1.9294   61.6809 H       1  ZINC000470948647    0.1200
     39 H39        -8.0664   -0.5545   62.2675 H       1  ZINC000470948647    0.1000
     40 H40        -9.2081   -1.9258   62.4620 H       1  ZINC000470948647    0.1400
     41 H41       -12.6146   -1.7769   55.5296 H       1  ZINC000470948647    0.1100
     42 H42       -10.8231   -1.1298   53.9420 H       1  ZINC000470948647    0.0800
     43 H43       -10.0419   -2.7115   54.1789 H       1  ZINC000470948647    0.0800
     44 H44       -12.8582   -2.2624   53.0909 H       1  ZINC000470948647    0.0700
     45 H45       -11.4301   -2.7034   52.1243 H       1  ZINC000470948647    0.0800
     46 H46       -12.7951   -4.7033   52.6589 H       1  ZINC000470948647    0.0700
     47 H47       -11.1934   -4.7984   53.4296 H       1  ZINC000470948647    0.0700
     48 H48       -13.7662   -3.8637   54.7803 H       1  ZINC000470948647    0.0700
     49 H49       -12.9849   -5.4454   55.0172 H       1  ZINC000470948647    0.0700
     50 H50       -10.9498   -4.3127   55.8683 H       1  ZINC000470948647    0.0700
     51 H51       -12.3779   -3.8718   56.8349 H       1  ZINC000470948647    0.0700
     52 H52       -10.0114    0.0150   55.5154 H       1  ZINC000470948647    0.1800
     53 H53        -8.7175    0.4259   57.7889 H       1  ZINC000470948647    0.1600
     54 H54       -14.1115    1.9319   60.1726 H       1  ZINC000470948647    0.0700
     55 H55       -15.3393    1.4635   61.3731 H       1  ZINC000470948647    0.0700
     56 H56       -13.6351    1.0132   61.6208 H       1  ZINC000470948647    0.0600
     57 H57       -16.7134    0.2798   59.7587 H       1  ZINC000470948647    0.1300
@<TRIPOS>BOND
     1     1     2    1
     2     1    31    1
     3     1    32    1
     4     1    33    1
     5     2    30   ar
     6     2     3   ar
     7     3     4   ar
     8     3    34    1
     9     4     5   ar
    10     4    35    1
    11     5     6    1
    12     5    28   ar
    13     6     7   am
    14     6    36    1
    15     7     8    2
    16     7     9    1
    17     9    10    1
    18     9    14    1
    19     9    11    1
    20    11    12    1
    21    11    37    1
    22    11    38    1
    23    12    13    1
    24    13    14    1
    25    13    39    1
    26    13    40    1
    27    14    15   am
    28    15    16    2
    29    15    17    1
    30    17    27    1
    31    17    18    2
    32    18    19    1
    33    19    20    1
    34    19    26    1
    35    20    25    1
    36    20    21    1
    37    20    41    1
    38    21    22    1
    39    21    42    1
    40    21    43    1
    41    22    23    1
    42    22    44    1
    43    22    45    1
    44    23    24    1
    45    23    46    1
    46    23    47    1
    47    24    25    1
    48    24    48    1
    49    24    49    1
    50    25    50    1
    51    25    51    1
    52    26    27    2
    53    26    52    1
    54    27    53    1
    55    28    29    1
    56    28    30   ar
    57    29    54    1
    58    29    55    1
    59    29    56    1
    60    30    57    1
@<TRIPOS>SUBSTRUCTURE
     1 ZINC000470948647        1 TEMP              0 ****  ****    0 ROOT


##########                                Name:    ZINC001060578637
##########                DOCK_Rotatable_Bonds:                  10
##########                         Heavy_Atoms:                  25
##########                    Molecular_Weight:             345.401
##########                DOCK_Rotatable_Bonds:                  10
##########                       Formal_Charge:          -0.0400001
##########                     HBond_Acceptors:                   8
##########                        HBond_Donors:                   3
##########                         Heavy_Atoms:                  25
##########                          Grid_Score:          -32.189808
##########                     Grid_vdw_energy:          -32.995075
##########                      Grid_es_energy:            0.805267
##########           Internal_energy_repulsive:           13.495516

@<TRIPOS>MOLECULE
ZINC001060578637
 48 49 1 0 0
SMALL
USER_CHARGES


@<TRIPOS>ATOM
      1 C1         -9.2031    1.7539   64.7288 C.3     1  ZINC001060578637   -0.1500
      2 C2         -8.6582    0.5202   64.0065 C.3     1  ZINC001060578637   -0.1300
      3 C3         -9.5622    0.1839   62.8187 C.3     1  ZINC001060578637    0.0700
      4 H4         -9.6069    1.0380   62.1429 H       1  ZINC001060578637    0.0900
      5 O5        -10.8764   -0.1189   63.2911 O.3     1  ZINC001060578637   -0.3600
      6 C6        -11.8334   -0.3307   62.2512 C.3     1  ZINC001060578637    0.0300
      7 C7         -9.0049   -1.0086   62.0850 C.2     1  ZINC001060578637    0.5000
      8 O8         -8.2545   -1.7737   62.6529 O.2     1  ZINC001060578637   -0.5200
      9 N9         -9.3404   -1.2249   60.7977 N.am    1  ZINC001060578637   -0.7300
     10 C10        -8.8001   -2.3851   60.0848 C.3     1  ZINC001060578637    0.1600
     11 C11        -9.7567   -2.7955   58.9952 C.ar    1  ZINC001060578637   -0.1100
     12 C12       -10.1192   -4.1223   58.8573 C.ar    1  ZINC001060578637   -0.0900
     13 C13       -10.9968   -4.4988   57.8577 C.ar    1  ZINC001060578637   -0.1100
     14 C14       -11.5122   -3.5483   56.9964 C.ar    1  ZINC001060578637   -0.0900
     15 C15       -12.4685   -3.9587   55.9064 C.3     1  ZINC001060578637    0.1800
     16 H16       -12.6856   -5.0232   55.9955 H       1  ZINC001060578637    0.1000
     17 C17       -11.8362   -3.6796   54.5414 C.3     1  ZINC001060578637   -0.1600
     18 N18       -13.7117   -3.1943   56.0341 N.am    1  ZINC001060578637   -0.7000
     19 C19       -14.5727   -3.4701   57.0337 C.2     1  ZINC001060578637    0.6100
     20 O20       -14.3183   -4.3543   57.8286 O.2     1  ZINC001060578637   -0.5300
     21 C21       -15.8232   -2.6996   57.1632 C.2     1  ZINC001060578637    0.1200
     22 N22       -16.2850   -1.8075   56.3133 N.2     1  ZINC001060578637   -0.2400
     23 N23       -17.4000   -1.3380   56.7490 N.2     1  ZINC001060578637   -0.2900
     24 C24       -17.7067   -1.9018   57.8919 C.2     1  ZINC001060578637    0.1900
     25 N25       -16.7290   -2.7805   58.1893 N.pl3   1  ZINC001060578637   -0.5500
     26 C26       -11.1507   -2.2213   57.1352 C.ar    1  ZINC001060578637   -0.1100
     27 C27       -10.2762   -1.8443   58.1371 C.ar    1  ZINC001060578637   -0.0900
     28 H28        -8.5421    2.0119   65.5562 H       1  ZINC001060578637    0.0600
     29 H29        -9.2553    2.5898   64.0313 H       1  ZINC001060578637    0.0500
     30 H30       -10.2000    1.5389   65.1137 H       1  ZINC001060578637    0.0600
     31 H31        -7.6492    0.7247   63.6486 H       1  ZINC001060578637    0.0800
     32 H32        -8.6351   -0.3239   64.6958 H       1  ZINC001060578637    0.0800
     33 H33       -12.7855   -0.6307   62.6891 H       1  ZINC001060578637    0.0900
     34 H34       -11.9676    0.5925   61.6875 H       1  ZINC001060578637    0.0500
     35 H35       -11.4771   -1.1155   61.5838 H       1  ZINC001060578637    0.0400
     36 H36        -9.9396   -0.6122   60.3431 H       1  ZINC001060578637    0.4000
     37 H37        -7.8375   -2.1251   59.6444 H       1  ZINC001060578637    0.0800
     38 H38        -8.6687   -3.2117   60.7832 H       1  ZINC001060578637    0.0800
     39 H39        -9.7167   -4.8649   59.5303 H       1  ZINC001060578637    0.1300
     40 H40       -11.2795   -5.5355   57.7495 H       1  ZINC001060578637    0.1300
     41 H41       -11.6190   -2.6152   54.4525 H       1  ZINC001060578637    0.0600
     42 H42       -10.9111   -4.2483   54.4464 H       1  ZINC001060578637    0.0700
     43 H43       -12.5279   -3.9765   53.7531 H       1  ZINC001060578637    0.0700
     44 H44       -13.9152   -2.4897   55.3993 H       1  ZINC001060578637    0.4100
     45 H45       -18.5860   -1.7011   58.4859 H       1  ZINC001060578637    0.2300
     46 H46       -16.6745   -3.3500   58.9726 H       1  ZINC001060578637    0.4400
     47 H47       -11.5536   -1.4787   56.4625 H       1  ZINC001060578637    0.1300
     48 H48        -9.9936   -0.8075   58.2455 H       1  ZINC001060578637    0.1300
@<TRIPOS>BOND
     1     1     2    1
     2     1    28    1
     3     1    29    1
     4     1    30    1
     5     2     3    1
     6     2    31    1
     7     2    32    1
     8     3     4    1
     9     3     5    1
    10     3     7    1
    11     5     6    1
    12     6    33    1
    13     6    34    1
    14     6    35    1
    15     7     8    2
    16     7     9   am
    17     9    10    1
    18     9    36    1
    19    10    11    1
    20    10    37    1
    21    10    38    1
    22    11    27   ar
    23    11    12   ar
    24    12    13   ar
    25    12    39    1
    26    13    14   ar
    27    13    40    1
    28    14    15    1
    29    14    26   ar
    30    15    16    1
    31    15    17    1
    32    15    18    1
    33    17    41    1
    34    17    42    1
    35    17    43    1
    36    18    19   am
    37    18    44    1
    38    19    20    2
    39    19    21    1
    40    21    25    1
    41    21    22    2
    42    22    23    1
    43    23    24    2
    44    24    25    1
    45    24    45    1
    46    25    46    1
    47    26    27   ar
    48    26    47    1
    49    27    48    1
@<TRIPOS>SUBSTRUCTURE
     1 ZINC001060578637        1 TEMP              0 ****  ****    0 ROOT


##########                                Name:    ZINC001067560454
##########                DOCK_Rotatable_Bonds:                   4
##########                         Heavy_Atoms:                  25
##########                    Molecular_Weight:             342.444
##########                DOCK_Rotatable_Bonds:                   4
##########                       Formal_Charge:          0.00999971
##########                     HBond_Acceptors:                   7
##########                        HBond_Donors:                   1
##########                         Heavy_Atoms:                  25
##########                          Grid_Score:          -32.185581
##########                     Grid_vdw_energy:          -31.138063
##########                      Grid_es_energy:           -1.047520
##########           Internal_energy_repulsive:           10.736335

@<TRIPOS>MOLECULE
ZINC001067560454
 51 54 1 0 0
SMALL
USER_CHARGES


@<TRIPOS>ATOM
      1 C1        -13.6285   -1.7166   56.3129 C.3     1  ZINC001067560454   -0.1500
      2 C2        -13.1232   -2.3680   55.0240 C.3     1  ZINC001067560454    0.1000
      3 H3        -13.5147   -3.3828   54.9523 H       1  ZINC001067560454    0.0600
      4 C4        -13.5983   -1.5517   53.8199 C.3     1  ZINC001067560454   -0.1200
      5 C5        -13.0737   -2.1959   52.5337 C.3     1  ZINC001067560454    0.1400
      6 H6        -13.4845   -3.2008   52.4356 H       1  ZINC001067560454    0.0900
      7 N7        -13.4779   -1.3871   51.3810 N.am    1  ZINC001067560454   -0.7200
      8 C8        -14.6771   -1.5923   50.8011 C.2     1  ZINC001067560454    0.5400
      9 O9        -15.4211   -2.4472   51.2328 O.2     1  ZINC001067560454   -0.5300
     10 C10       -15.0937   -0.7591   49.6164 C.3     1  ZINC001067560454   -0.1100
     11 C11       -15.5883    0.6331   50.0138 C.3     1  ZINC001067560454   -0.1300
     12 C12       -14.0594   -0.7459   48.4785 C.3     1  ZINC001067560454   -0.1200
     13 C13       -14.7722   -1.9897   47.9219 C.3     1  ZINC001067560454   -0.1400
     14 C14       -16.0346   -1.4938   48.6470 C.3     1  ZINC001067560454   -0.1200
     15 C15       -11.5457   -2.2717   52.5967 C.3     1  ZINC001067560454   -0.1200
     16 C16       -11.1299   -3.0671   53.8363 C.3     1  ZINC001067560454    0.0600
     17 N17       -11.6554   -2.4099   55.0398 N.3     1  ZINC001067560454   -0.4900
     18 C18       -11.1895   -3.0290   56.1865 C.ar    1  ZINC001067560454    0.4400
     19 C19       -10.5942   -2.2809   57.2162 C.ar    1  ZINC001067560454   -0.0800
     20 N20       -10.3243   -0.9670   57.4055 N.2     1  ZINC001067560454   -0.4700
     21 C21        -9.7481   -0.8053   58.5612 C.2     1  ZINC001067560454    0.2700
     22 N22        -9.6123   -2.0091   59.1864 N.pl3   1  ZINC001067560454   -0.4800
     23 C23        -9.0129   -2.2392   60.5032 C.3     1  ZINC001067560454    0.0800
     24 C24       -10.1407   -2.9654   58.3567 C.ar    1  ZINC001067560454    0.2800
     25 N25       -10.2901   -4.2844   58.4202 N.ar    1  ZINC001067560454   -0.5200
     26 C26       -10.8545   -4.9441   57.4306 C.ar    1  ZINC001067560454    0.3300
     27 N27       -11.2997   -4.3444   56.3418 N.ar    1  ZINC001067560454   -0.5100
     28 H28       -13.2371   -0.7019   56.3849 H       1  ZINC001067560454    0.0700
     29 H29       -14.7180   -1.6859   56.3015 H       1  ZINC001067560454    0.0700
     30 H30       -13.2905   -2.2981   57.1707 H       1  ZINC001067560454    0.0500
     31 H31       -14.6881   -1.5338   53.7996 H       1  ZINC001067560454    0.0800
     32 H32       -13.2184   -0.5331   53.8979 H       1  ZINC001067560454    0.0800
     33 H33       -12.8823   -0.7041   51.0350 H       1  ZINC001067560454    0.4000
     34 H34       -14.8612    1.1015   50.6770 H       1  ZINC001067560454    0.0600
     35 H35       -15.7108    1.2441   49.1194 H       1  ZINC001067560454    0.0700
     36 H36       -16.5455    0.5456   50.5278 H       1  ZINC001067560454    0.0600
     37 H37       -14.1346    0.1272   47.8303 H       1  ZINC001067560454    0.0900
     38 H38       -13.0401   -0.9397   48.8126 H       1  ZINC001067560454    0.0700
     39 H39       -14.8645   -1.9906   46.8359 H       1  ZINC001067560454    0.0700
     40 H40       -14.3831   -2.9286   48.3155 H       1  ZINC001067560454    0.0800
     41 H41       -16.6098   -2.2914   49.1171 H       1  ZINC001067560454    0.0800
     42 H42       -16.6497   -0.8251   48.0448 H       1  ZINC001067560454    0.0900
     43 H43       -11.1688   -2.7681   51.7026 H       1  ZINC001067560454    0.0800
     44 H44       -11.1334   -1.2643   52.6556 H       1  ZINC001067560454    0.0800
     45 H45       -11.5310   -4.0785   53.7702 H       1  ZINC001067560454    0.0700
     46 H46       -10.0423   -3.1107   53.8920 H       1  ZINC001067560454    0.0800
     47 H47        -9.4248    0.1427   58.9652 H       1  ZINC001067560454    0.2300
     48 H48        -9.7840   -2.1707   61.2706 H       1  ZINC001067560454    0.0800
     49 H49        -8.5621   -3.2313   60.5288 H       1  ZINC001067560454    0.0900
     50 H50        -8.2465   -1.4870   60.6900 H       1  ZINC001067560454    0.0900
     51 H51       -10.9606   -6.0157   57.5141 H       1  ZINC001067560454    0.2100
@<TRIPOS>BOND
     1     1     2    1
     2     1    28    1
     3     1    29    1
     4     1    30    1
     5     2     3    1
     6     2    17    1
     7     2     4    1
     8     4     5    1
     9     4    31    1
    10     4    32    1
    11     5     6    1
    12     5     7    1
    13     5    15    1
    14     7     8   am
    15     7    33    1
    16     8     9    2
    17     8    10    1
    18    10    14    1
    19    10    11    1
    20    10    12    1
    21    11    34    1
    22    11    35    1
    23    11    36    1
    24    12    13    1
    25    12    37    1
    26    12    38    1
    27    13    14    1
    28    13    39    1
    29    13    40    1
    30    14    41    1
    31    14    42    1
    32    15    16    1
    33    15    43    1
    34    15    44    1
    35    16    17    1
    36    16    45    1
    37    16    46    1
    38    17    18    1
    39    18    27   ar
    40    18    19   ar
    41    19    24   ar
    42    19    20    1
    43    20    21    2
    44    21    22    1
    45    21    47    1
    46    22    23    1
    47    22    24    1
    48    23    48    1
    49    23    49    1
    50    23    50    1
    51    24    25   ar
    52    25    26   ar
    53    26    27   ar
    54    26    51    1
@<TRIPOS>SUBSTRUCTURE
     1 ZINC001067560454        1 TEMP              0 ****  ****    0 ROOT


##########                                Name:    ZINC000951315041
##########                DOCK_Rotatable_Bonds:                   5
##########                         Heavy_Atoms:                  25
##########                    Molecular_Weight:             340.382
##########                DOCK_Rotatable_Bonds:                   5
##########                       Formal_Charge:          0.00999974
##########                     HBond_Acceptors:                   7
##########                        HBond_Donors:                   1
##########                         Heavy_Atoms:                  25
##########                          Grid_Score:          -32.177067
##########                     Grid_vdw_energy:          -33.511303
##########                      Grid_es_energy:            1.334236
##########           Internal_energy_repulsive:           23.788008

@<TRIPOS>MOLECULE
ZINC000951315041
 45 47 1 0 0
SMALL
USER_CHARGES


@<TRIPOS>ATOM
      1 C1         -9.8600   -1.2707   60.3948 C.3     1  ZINC000951315041    0.0500
      2 N2        -10.0798   -2.4178   59.5105 N.am    1  ZINC000951315041   -0.4900
      3 C3        -11.2186   -2.4955   58.7972 C.2     1  ZINC000951315041    0.1700
      4 C4        -11.4469   -3.5672   57.9584 C.2     1  ZINC000951315041   -0.2400
      5 C5        -12.6960   -3.6479   57.1790 C.2     1  ZINC000951315041    0.5800
      6 O6        -13.6697   -4.2062   57.6469 O.2     1  ZINC000951315041   -0.5200
      7 N7        -12.7586   -3.1028   55.9479 N.am    1  ZINC000951315041   -0.6000
      8 C8        -13.9961   -3.1751   55.1593 C.3     1  ZINC000951315041    0.1100
      9 C9        -13.6731   -3.7793   53.7891 C.3     1  ZINC000951315041   -0.1300
     10 C10       -12.5541   -2.9695   53.1301 C.3     1  ZINC000951315041   -0.1300
     11 C11       -11.2946   -3.0371   53.9969 C.3     1  ZINC000951315041    0.1300
     12 H12       -10.9931   -4.0772   54.1201 H       1  ZINC000951315041    0.1000
     13 N13       -10.2147   -2.2884   53.3493 N.am    1  ZINC000951315041   -0.7200
     14 C14       -10.3623   -0.9721   53.1005 C.2     1  ZINC000951315041    0.5700
     15 O15       -11.3921   -0.4064   53.4122 O.2     1  ZINC000951315041   -0.5200
     16 C16        -9.2718   -0.2161   52.4485 C.ar    1  ZINC000951315041   -0.1900
     17 C17        -9.3879    1.1632   52.2396 C.ar    1  ZINC000951315041   -0.0100
     18 C18        -8.3385    1.8242   51.6255 C.ar    1  ZINC000951315041   -0.1800
     19 C19        -7.2194    1.1080   51.2415 C.ar    1  ZINC000951315041    0.1300
     20 N20        -7.1377   -0.1923   51.4510 N.ar    1  ZINC000951315041   -0.4900
     21 C21        -8.1068   -0.8645   52.0364 C.ar    1  ZINC000951315041    0.1400
     22 C22       -11.5926   -2.4195   55.3716 C.3     1  ZINC000951315041    0.1000
     23 C23       -10.4720   -4.5887   57.8515 C.2     1  ZINC000951315041    0.0100
     24 C24        -9.3292   -4.4884   58.5815 C.2     1  ZINC000951315041   -0.2300
     25 C25        -9.1380   -3.3742   59.4201 C.2     1  ZINC000951315041    0.5100
     26 O26        -8.1144   -3.2795   60.0765 O.2     1  ZINC000951315041   -0.5400
     27 H27        -8.8917   -1.3705   60.8853 H       1  ZINC000951315041    0.1100
     28 H28        -9.8773   -0.3517   59.8088 H       1  ZINC000951315041    0.0800
     29 H29       -10.6471   -1.2364   61.1479 H       1  ZINC000951315041    0.0800
     30 H30       -11.9589   -1.7139   58.8822 H       1  ZINC000951315041    0.1700
     31 H31       -14.7215   -3.8048   55.6744 H       1  ZINC000951315041    0.1000
     32 H32       -14.4058   -2.1734   55.0295 H       1  ZINC000951315041    0.0700
     33 H33       -13.3492   -4.8125   53.9143 H       1  ZINC000951315041    0.0700
     34 H34       -14.5625   -3.7501   53.1598 H       1  ZINC000951315041    0.0900
     35 H35       -12.3392   -3.3825   52.1445 H       1  ZINC000951315041    0.0800
     36 H36       -12.8692   -1.9310   53.0276 H       1  ZINC000951315041    0.0700
     37 H37        -9.3934   -2.7400   53.0995 H       1  ZINC000951315041    0.4000
     38 H38       -10.2739    1.6977   52.5494 H       1  ZINC000951315041    0.1500
     39 H39        -8.3931    2.8880   51.4476 H       1  ZINC000951315041    0.1500
     40 H40        -6.3990    1.6213   50.7620 H       1  ZINC000951315041    0.1600
     41 H41        -8.0029   -1.9284   52.1907 H       1  ZINC000951315041    0.1600
     42 H42       -11.8051   -1.3567   55.2566 H       1  ZINC000951315041    0.0700
     43 H43       -10.7316   -2.5533   56.0266 H       1  ZINC000951315041    0.0900
     44 H44       -10.6340   -5.4349   57.2004 H       1  ZINC000951315041    0.1400
     45 H45        -8.5725   -5.2563   58.5157 H       1  ZINC000951315041    0.1600
@<TRIPOS>BOND
     1     1     2    1
     2     1    27    1
     3     1    28    1
     4     1    29    1
     5     2    25   am
     6     2     3    1
     7     3     4    2
     8     3    30    1
     9     4     5    1
    10     4    23    1
    11     5     6    2
    12     5     7   am
    13     7    22    1
    14     7     8    1
    15     8     9    1
    16     8    31    1
    17     8    32    1
    18     9    10    1
    19     9    33    1
    20     9    34    1
    21    10    11    1
    22    10    35    1
    23    10    36    1
    24    11    12    1
    25    11    13    1
    26    11    22    1
    27    13    14   am
    28    13    37    1
    29    14    15    2
    30    14    16    1
    31    16    21   ar
    32    16    17   ar
    33    17    18   ar
    34    17    38    1
    35    18    19   ar
    36    18    39    1
    37    19    20   ar
    38    19    40    1
    39    20    21   ar
    40    21    41    1
    41    22    42    1
    42    22    43    1
    43    23    24    2
    44    23    44    1
    45    24    25    1
    46    24    45    1
    47    25    26    2
@<TRIPOS>SUBSTRUCTURE
     1 ZINC000951315041        1 TEMP              0 ****  ****    0 ROOT


##########                                Name:    ZINC000328606936
##########                DOCK_Rotatable_Bonds:                   6
##########                         Heavy_Atoms:                  23
##########                    Molecular_Weight:             338.428
##########                DOCK_Rotatable_Bonds:                   6
##########                       Formal_Charge:           0.0100001
##########                     HBond_Acceptors:                   7
##########                        HBond_Donors:                   2
##########                         Heavy_Atoms:                  23
##########                          Grid_Score:          -32.166538
##########                     Grid_vdw_energy:          -28.656368
##########                      Grid_es_energy:           -3.510171
##########           Internal_energy_repulsive:           10.882831

@<TRIPOS>MOLECULE
ZINC000328606936
 45 47 1 0 0
SMALL
USER_CHARGES


@<TRIPOS>ATOM
      1 C1         -8.4055   -0.4725   63.0656 C.3     1  <0>        -0.0500
      2 N2         -9.2133    0.2273   62.0579 N.4     1  <0>        -0.3500
      3 H3         -8.6051    0.6411   61.3673 H       1  <0>         0.4200
      4 C4        -10.0031    1.2810   62.7090 C.3     1  <0>        -0.0900
      5 C5        -10.6125    0.7410   63.9771 C.2     1  <0>         0.4900
      6 O6        -11.6745    0.1435   63.9367 O.co2   1  <0>        -0.6700
      7 O7        -10.0434    0.9014   65.0434 O.co2   1  <0>        -0.6400
      8 C8        -10.1170   -0.7288   61.4044 C.3     1  <0>         0.0100
      9 H9        -10.7871   -1.1776   62.1377 H       1  <0>         0.1600
     10 C10        -9.3060   -1.8232   60.6778 C.3     1  <0>         0.1000
     11 N11       -10.0721   -2.0961   59.4394 N.am    1  <0>        -0.6200
     12 C12       -10.2983   -3.2883   58.8530 C.2     1  <0>         0.6200
     13 O13        -9.8476   -4.3050   59.3474 O.2     1  <0>        -0.5100
     14 C14       -11.0870   -3.3605   57.6196 C.2     1  <0>        -0.2800
     15 C15       -10.8989   -2.5867   56.5156 C.2     1  <0>        -0.0300
     16 C16       -11.7789   -2.8531   55.4827 C.2     1  <0>        -0.1200
     17 C17       -12.6669   -3.8350   55.7584 C.2     1  <0>        -0.1900
     18 C18       -13.7356   -4.3172   54.7955 C.3     1  <0>        -0.0500
     19 C19       -13.9090   -3.2730   53.6896 C.3     1  <0>        -0.1200
     20 C20       -12.5329   -2.9185   53.1186 C.3     1  <0>        -0.1200
     21 C21       -11.7517   -2.1079   54.1544 C.3     1  <0>        -0.0600
     22 S22       -12.4210   -4.4642   57.3266 S.3     1  <0>         0.2000
     23 C23       -10.5331   -0.7612   58.9920 C.3     1  <0>         0.0600
     24 C24       -10.9282   -0.0279   60.2949 C.3     1  <0>         0.0800
     25 H25       -10.6552    1.0256   60.2343 H       1  <0>         0.1000
     26 O26       -12.3301   -0.1640   60.5360 O.3     1  <0>        -0.5400
     27 H27        -9.0625   -0.9195   63.8116 H       1  <0>         0.1100
     28 H28        -7.8195   -1.2544   62.5824 H       1  <0>         0.1100
     29 H29        -7.7349    0.2370   63.5504 H       1  <0>         0.1600
     30 H30        -9.3561    2.1251   62.9477 H       1  <0>         0.1200
     31 H31       -10.7955    1.6094   62.0364 H       1  <0>         0.1300
     32 H32        -8.3080   -1.4586   60.4347 H       1  <0>         0.1000
     33 H33        -9.2442   -2.7215   61.2921 H       1  <0>         0.1200
     34 H34       -10.1301   -1.8308   56.4521 H       1  <0>         0.1500
     35 H35       -13.4306   -5.2672   54.3567 H       1  <0>         0.0900
     36 H36       -14.6776   -4.4444   55.3290 H       1  <0>         0.0800
     37 H37       -14.5382   -3.6807   52.8983 H       1  <0>         0.0700
     38 H38       -14.3740   -2.3779   54.1026 H       1  <0>         0.0700
     39 H39       -11.9885   -3.8338   52.8858 H       1  <0>         0.0700
     40 H40       -12.6565   -2.3270   52.2114 H       1  <0>         0.0700
     41 H41       -12.2131   -1.1278   54.2749 H       1  <0>         0.0800
     42 H42       -10.7199   -1.9900   53.8235 H       1  <0>         0.0800
     43 H43        -9.7268   -0.2306   58.4857 H       1  <0>         0.1000
     44 H44       -11.3971   -0.8582   58.3346 H       1  <0>         0.1000
     45 H45       -12.8861    0.3055   59.8992 H       1  <0>         0.4000
@<TRIPOS>BOND
     1     1     2    1
     2     1    27    1
     3     1    28    1
     4     1    29    1
     5     2     3    1
     6     2     4    1
     7     2     8    1
     8     4     5    1
     9     4    30    1
    10     4    31    1
    11     5     6   ar
    12     5     7   ar
    13     8     9    1
    14     8    24    1
    15     8    10    1
    16    10    11    1
    17    10    32    1
    18    10    33    1
    19    11    12   am
    20    11    23    1
    21    12    13    2
    22    12    14    1
    23    14    22    1
    24    14    15    2
    25    15    16    1
    26    15    34    1
    27    16    21    1
    28    16    17    2
    29    17    18    1
    30    17    22    1
    31    18    19    1
    32    18    35    1
    33    18    36    1
    34    19    20    1
    35    19    37    1
    36    19    38    1
    37    20    21    1
    38    20    39    1
    39    20    40    1
    40    21    41    1
    41    21    42    1
    42    23    24    1
    43    23    43    1
    44    23    44    1
    45    24    25    1
    46    24    26    1
    47    26    45    1
@<TRIPOS>SUBSTRUCTURE
     1 <0>         1 TEMP              0 ****  ****    0 ROOT


##########                                Name:    ZINC000800038938
##########                DOCK_Rotatable_Bonds:                   6
##########                         Heavy_Atoms:                  25
##########                    Molecular_Weight:             386.274
##########                DOCK_Rotatable_Bonds:                   6
##########                       Formal_Charge:           0.0200003
##########                     HBond_Acceptors:                   7
##########                        HBond_Donors:                   0
##########                         Heavy_Atoms:                  25
##########                          Grid_Score:          -32.140339
##########                     Grid_vdw_energy:          -30.315300
##########                      Grid_es_energy:           -1.825038
##########           Internal_energy_repulsive:            9.265324

@<TRIPOS>MOLECULE
ZINC000800038938
 46 48 1 0 0
SMALL
USER_CHARGES


@<TRIPOS>ATOM
      1 C1        -15.6083   -0.8607   65.9901 C.3     1  ZINC000800038938    0.0300
      2 O2        -15.7347   -0.0648   64.8099 O.3     1  ZINC000800038938   -0.3800
      3 C3        -14.5134    0.5444   64.3861 C.3     1  ZINC000800038938    0.0900
      4 H4        -13.8421    0.6652   65.2363 H       1  ZINC000800038938    0.0700
      5 C5        -14.8027    1.9159   63.7421 C.3     1  ZINC000800038938   -0.1400
      6 C6        -13.7855    2.0111   62.5781 C.3     1  ZINC000800038938   -0.1400
      7 C7        -13.7482    0.5603   62.0371 C.3     1  ZINC000800038938    0.0900
      8 H8        -14.5983    0.3760   61.3803 H       1  ZINC000800038938    0.0900
      9 O9        -12.5019    0.3115   61.3349 O.3     1  ZINC000800038938   -0.3500
     10 C10       -12.4561   -0.7681   60.5385 C.2     1  ZINC000800038938    0.4500
     11 O11       -13.2950   -1.6314   60.6425 O.2     1  ZINC000800038938   -0.4800
     12 C12       -11.3583   -0.9034   59.5150 C.3     1  ZINC000800038938    0.1500
     13 H13       -11.2265    0.0405   58.9860 H       1  ZINC000800038938    0.1200
     14 C14       -10.0397   -1.3045   60.2095 C.3     1  ZINC000800038938   -0.1200
     15 C15        -9.4076   -2.3034   59.2044 C.3     1  ZINC000800038938   -0.1300
     16 C16       -10.6624   -3.0231   58.6503 C.3     1  ZINC000800038938    0.0900
     17 N17       -11.6941   -1.9693   58.5597 N.am    1  ZINC000800038938   -0.6000
     18 C18       -12.7642   -1.9860   57.7404 C.2     1  ZINC000800038938    0.5800
     19 O19       -13.5519   -1.0603   57.7506 O.2     1  ZINC000800038938   -0.4900
     20 C20       -12.9798   -3.1298   56.8300 C.ar    1  ZINC000800038938   -0.1100
     21 C21       -12.2999   -3.1949   55.6128 C.ar    1  ZINC000800038938   -0.0700
     22 C22       -12.5061   -4.2663   54.7669 C.ar    1  ZINC000800038938   -0.0400
     23 Cl23      -11.6611   -4.3493   53.2527 Cl      1  ZINC000800038938   -0.0500
     24 C24       -13.3852   -5.2752   55.1236 C.ar    1  ZINC000800038938   -0.0700
     25 C25       -14.0625   -5.2170   56.3280 C.ar    1  ZINC000800038938   -0.1000
     26 C26       -13.8610   -4.1540   57.1864 C.ar    1  ZINC000800038938    0.0100
     27 Cl27      -14.7122   -4.0828   58.6978 Cl      1  ZINC000800038938   -0.0300
     28 C28       -13.8423   -0.3182   63.3030 C.3     1  ZINC000800038938   -0.1200
     29 H29       -16.5780   -1.2877   66.2459 H       1  ZINC000800038938    0.0900
     30 H30       -14.8932   -1.6637   65.8119 H       1  ZINC000800038938    0.0400
     31 H31       -15.2573   -0.2375   66.8127 H       1  ZINC000800038938    0.0400
     32 H32       -15.8233    1.9506   63.3607 H       1  ZINC000800038938    0.0800
     33 H33       -14.6358    2.7179   64.4612 H       1  ZINC000800038938    0.0800
     34 H34       -14.1393    2.7003   61.8112 H       1  ZINC000800038938    0.0800
     35 H35       -12.8044    2.3115   62.9459 H       1  ZINC000800038938    0.0800
     36 H36        -9.3960   -0.4356   60.3462 H       1  ZINC000800038938    0.1000
     37 H37       -10.2393   -1.7919   61.1637 H       1  ZINC000800038938    0.0900
     38 H38        -8.8772   -1.7765   58.4112 H       1  ZINC000800038938    0.0900
     39 H39        -8.7477   -3.0055   59.7141 H       1  ZINC000800038938    0.1000
     40 H40       -10.4573   -3.4372   57.6632 H       1  ZINC000800038938    0.0900
     41 H41       -10.9814   -3.8100   59.3339 H       1  ZINC000800038938    0.0800
     42 H42       -11.6144   -2.4087   55.3330 H       1  ZINC000800038938    0.1500
     43 H43       -13.5427   -6.1111   54.4582 H       1  ZINC000800038938    0.1500
     44 H44       -14.7469   -6.0071   56.5999 H       1  ZINC000800038938    0.1500
     45 H45       -12.8446   -0.6156   63.6261 H       1  ZINC000800038938    0.0900
     46 H46       -14.4483   -1.2013   63.1004 H       1  ZINC000800038938    0.0900
@<TRIPOS>BOND
     1     1     2    1
     2     1    29    1
     3     1    30    1
     4     1    31    1
     5     2     3    1
     6     3     4    1
     7     3    28    1
     8     3     5    1
     9     5     6    1
    10     5    32    1
    11     5    33    1
    12     6     7    1
    13     6    34    1
    14     6    35    1
    15     7     8    1
    16     7     9    1
    17     7    28    1
    18     9    10    1
    19    10    11    2
    20    10    12    1
    21    12    13    1
    22    12    17    1
    23    12    14    1
    24    14    15    1
    25    14    36    1
    26    14    37    1
    27    15    16    1
    28    15    38    1
    29    15    39    1
    30    16    17    1
    31    16    40    1
    32    16    41    1
    33    17    18   am
    34    18    19    2
    35    18    20    1
    36    20    26   ar
    37    20    21   ar
    38    21    22   ar
    39    21    42    1
    40    22    23    1
    41    22    24   ar
    42    24    25   ar
    43    24    43    1
    44    25    26   ar
    45    25    44    1
    46    26    27    1
    47    28    45    1
    48    28    46    1
@<TRIPOS>SUBSTRUCTURE
     1 ZINC000800038938        1 TEMP              0 ****  ****    0 ROOT


##########                                Name:    ZINC000885154703
##########                DOCK_Rotatable_Bonds:                   5
##########                         Heavy_Atoms:                  24
##########                    Molecular_Weight:             396.259
##########                DOCK_Rotatable_Bonds:                   5
##########                       Formal_Charge:          -0.0099998
##########                     HBond_Acceptors:                   6
##########                        HBond_Donors:                   1
##########                         Heavy_Atoms:                  24
##########                          Grid_Score:          -32.135986
##########                     Grid_vdw_energy:          -31.747240
##########                      Grid_es_energy:           -0.388747
##########           Internal_energy_repulsive:            8.060431

@<TRIPOS>MOLECULE
ZINC000885154703
 43 45 1 0 0
SMALL
USER_CHARGES


@<TRIPOS>ATOM
      1 C1        -14.0067   -0.5708   47.8266 C.3     1  ZINC000885154703   -0.1500
      2 C2        -14.7328   -0.8274   49.1487 C.3     1  ZINC000885154703   -0.0300
      3 C3        -13.7547   -0.7131   50.2894 C.2     1  ZINC000885154703    0.1700
      4 N4        -13.4549    0.3711   50.9399 N.2     1  ZINC000885154703   -0.3800
      5 O5        -12.6349    0.1310   51.8010 O.3     1  ZINC000885154703    0.0800
      6 C6        -12.3243   -1.1686   51.7810 C.2     1  ZINC000885154703    0.1800
      7 C7        -11.3473   -1.8719   52.6875 C.3     1  ZINC000885154703    0.0000
      8 H8        -10.3542   -1.8709   52.2381 H       1  ZINC000885154703    0.1300
      9 C9        -11.8110   -3.3211   52.9413 C.3     1  ZINC000885154703   -0.1200
     10 C10       -11.4383   -3.5854   54.4214 C.3     1  ZINC000885154703   -0.1300
     11 C11       -11.7474   -2.2275   55.0994 C.3     1  ZINC000885154703    0.1400
     12 H12       -12.8142   -2.1376   55.3043 H       1  ZINC000885154703    0.1000
     13 N13       -10.9750   -2.0844   56.3360 N.am    1  ZINC000885154703   -0.7100
     14 C14       -11.2904   -2.8250   57.4170 C.2     1  ZINC000885154703    0.5700
     15 O15       -12.2167   -3.6107   57.3663 O.2     1  ZINC000885154703   -0.5100
     16 C16       -10.5107   -2.6819   58.6631 C.ar    1  ZINC000885154703   -0.1600
     17 C17        -9.4885   -3.5885   58.9602 C.ar    1  ZINC000885154703    0.1500
     18 F18        -9.2104   -4.5992   58.1080 F       1  ZINC000885154703   -0.1200
     19 C19        -8.7627   -3.4472   60.1292 C.ar    1  ZINC000885154703   -0.1500
     20 C20        -9.0467   -2.4137   61.0014 C.ar    1  ZINC000885154703   -0.0400
     21 C21       -10.0583   -1.5123   60.7124 C.ar    1  ZINC000885154703   -0.1100
     22 Br22      -10.4366   -0.1026   61.9146 Br      1  ZINC000885154703   -0.0300
     23 C23       -10.7868   -1.6371   59.5478 C.ar    1  ZINC000885154703    0.0100
     24 C24       -11.8862   -0.6547   59.2360 C.3     1  ZINC000885154703   -0.1300
     25 C25       -11.3060   -1.1758   54.0591 C.3     1  ZINC000885154703   -0.1300
     26 N26       -13.0360   -1.7159   50.8251 N.2     1  ZINC000885154703   -0.4800
     27 H27       -13.5761    0.4305   47.8370 H       1  ZINC000885154703    0.0600
     28 H28       -13.2126   -1.3065   47.6995 H       1  ZINC000885154703    0.0600
     29 H29       -14.7141   -0.6535   47.0016 H       1  ZINC000885154703    0.0700
     30 H30       -15.5269   -0.0916   49.2758 H       1  ZINC000885154703    0.1000
     31 H31       -15.1635   -1.8287   49.1383 H       1  ZINC000885154703    0.0900
     32 H32       -12.8880   -3.4078   52.7978 H       1  ZINC000885154703    0.0800
     33 H33       -11.2810   -4.0117   52.2854 H       1  ZINC000885154703    0.0900
     34 H34       -12.0595   -4.3769   54.8407 H       1  ZINC000885154703    0.0800
     35 H35       -10.3808   -3.8323   54.5153 H       1  ZINC000885154703    0.0800
     36 H36       -10.2368   -1.4566   56.3768 H       1  ZINC000885154703    0.4000
     37 H37        -7.9726   -4.1463   60.3609 H       1  ZINC000885154703    0.1500
     38 H38        -8.4774   -2.3082   61.9131 H       1  ZINC000885154703    0.1500
     39 H39       -11.4754    0.1839   58.6737 H       1  ZINC000885154703    0.0900
     40 H40       -12.6564   -1.1475   58.6427 H       1  ZINC000885154703    0.0800
     41 H41       -12.3219   -0.2898   60.1661 H       1  ZINC000885154703    0.0900
     42 H42       -10.2929   -0.8376   54.2770 H       1  ZINC000885154703    0.0900
     43 H43       -11.9928   -0.3296   54.0692 H       1  ZINC000885154703    0.0800
@<TRIPOS>BOND
     1     1     2    1
     2     1    27    1
     3     1    28    1
     4     1    29    1
     5     2     3    1
     6     2    30    1
     7     2    31    1
     8     3    26    1
     9     3     4    2
    10     4     5    1
    11     5     6    1
    12     6     7    1
    13     6    26    2
    14     7     8    1
    15     7    25    1
    16     7     9    1
    17     9    10    1
    18     9    32    1
    19     9    33    1
    20    10    11    1
    21    10    34    1
    22    10    35    1
    23    11    12    1
    24    11    13    1
    25    11    25    1
    26    13    14   am
    27    13    36    1
    28    14    15    2
    29    14    16    1
    30    16    23   ar
    31    16    17   ar
    32    17    18    1
    33    17    19   ar
    34    19    20   ar
    35    19    37    1
    36    20    21   ar
    37    20    38    1
    38    21    22    1
    39    21    23   ar
    40    23    24    1
    41    24    39    1
    42    24    40    1
    43    24    41    1
    44    25    42    1
    45    25    43    1
@<TRIPOS>SUBSTRUCTURE
     1 ZINC000885154703        1 TEMP              0 ****  ****    0 ROOT


##########                                Name:    ZINC000279593480
##########                DOCK_Rotatable_Bonds:                   9
##########                         Heavy_Atoms:                  23
##########                    Molecular_Weight:              340.85
##########                DOCK_Rotatable_Bonds:                   9
##########                       Formal_Charge:          -0.0500002
##########                     HBond_Acceptors:                   6
##########                        HBond_Donors:                   3
##########                         Heavy_Atoms:                  23
##########                          Grid_Score:          -32.118664
##########                     Grid_vdw_energy:          -31.521751
##########                      Grid_es_energy:           -0.596911
##########           Internal_energy_repulsive:           20.241468

@<TRIPOS>MOLECULE
ZINC000279593480
 48 49 1 0 0
SMALL
USER_CHARGES


@<TRIPOS>ATOM
      1 C1        -11.7772   -3.2717   52.5180 C.3     1  ZINC000279593480   -0.1400
      2 C2        -12.8965   -3.3514   53.5582 C.3     1  ZINC000279593480   -0.1400
      3 C3        -12.3637   -4.0125   54.8310 C.3     1  ZINC000279593480    0.1700
      4 H4        -11.4320   -4.5322   54.6078 H       1  ZINC000279593480    0.0900
      5 C5        -13.3941   -5.0149   55.3546 C.3     1  ZINC000279593480   -0.0900
      6 C6        -14.3175   -4.3252   56.3257 C.ar    1  ZINC000279593480   -0.0800
      7 C7        -15.1656   -3.3274   55.8828 C.ar    1  ZINC000279593480   -0.1000
      8 C8        -16.0127   -2.6946   56.7730 C.ar    1  ZINC000279593480   -0.1100
      9 C9        -16.0116   -3.0598   58.1074 C.ar    1  ZINC000279593480   -0.0400
     10 Cl10      -17.0756   -2.2657   59.2260 Cl      1  ZINC000279593480   -0.0700
     11 C11       -15.1625   -4.0584   58.5500 C.ar    1  ZINC000279593480   -0.1100
     12 C12       -14.3199   -4.6945   57.6579 C.ar    1  ZINC000279593480   -0.1000
     13 N13       -12.1193   -2.9870   55.8483 N.am    1  ZINC000279593480   -0.7400
     14 C14       -11.0301   -3.0674   56.6381 C.2     1  ZINC000279593480    0.7100
     15 O15       -10.2496   -3.9903   56.5052 O.2     1  ZINC000279593480   -0.5800
     16 N16       -10.8061   -2.1250   57.5751 N.am    1  ZINC000279593480   -0.7500
     17 C17        -9.6213   -2.2114   58.4324 C.3     1  ZINC000279593480    0.1200
     18 C18       -10.0505   -2.1779   59.9006 C.3     1  ZINC000279593480    0.0900
     19 O19       -10.4064   -3.4880   60.3469 O.3     1  ZINC000279593480   -0.5400
     20 C20        -8.9247   -1.5901   60.7805 C.3     1  ZINC000279593480   -0.1900
     21 C21        -9.5571   -0.3266   61.4049 C.3     1  ZINC000279593480    0.0500
     22 O22       -10.9800   -0.5725   61.3740 O.3     1  ZINC000279593480   -0.3600
     23 C23       -11.2301   -1.2000   60.0974 C.3     1  ZINC000279593480    0.0900
     24 H24       -11.2407   -0.4535   59.3032 H       1  ZINC000279593480    0.0800
     25 C25       -12.5568   -1.9615   60.1291 C.3     1  ZINC000279593480   -0.1400
     26 H26       -11.4251   -4.2767   52.2854 H       1  ZINC000279593480    0.0600
     27 H27       -12.1568   -2.8007   51.6113 H       1  ZINC000279593480    0.0400
     28 H28       -10.9524   -2.6808   52.9164 H       1  ZINC000279593480    0.0600
     29 H29       -13.2485   -2.3464   53.7909 H       1  ZINC000279593480    0.0600
     30 H30       -13.7213   -3.9422   53.1598 H       1  ZINC000279593480    0.0700
     31 H31       -13.9737   -5.4097   54.5201 H       1  ZINC000279593480    0.0800
     32 H32       -12.8809   -5.8331   55.8598 H       1  ZINC000279593480    0.0900
     33 H33       -15.1662   -3.0423   54.8411 H       1  ZINC000279593480    0.1300
     34 H34       -16.6751   -1.9149   56.4270 H       1  ZINC000279593480    0.1300
     35 H35       -15.1609   -4.3437   59.5916 H       1  ZINC000279593480    0.1300
     36 H36       -13.6573   -5.4743   58.0031 H       1  ZINC000279593480    0.1300
     37 H37       -12.7414   -2.2503   55.9536 H       1  ZINC000279593480    0.3900
     38 H38       -11.4294   -1.3894   57.6819 H       1  ZINC000279593480    0.3900
     39 H39        -9.0931   -3.1430   58.2294 H       1  ZINC000279593480    0.0800
     40 H40        -8.9620   -1.3679   58.2273 H       1  ZINC000279593480    0.0800
     41 H41       -10.2141   -3.6511   61.2804 H       1  ZINC000279593480    0.3700
     42 H42        -8.6387   -2.2982   61.5582 H       1  ZINC000279593480    0.0900
     43 H43        -8.0623   -1.3234   60.1695 H       1  ZINC000279593480    0.0900
     44 H44        -9.2163   -0.1998   62.4324 H       1  ZINC000279593480    0.1000
     45 H45        -9.3112    0.5538   60.8112 H       1  ZINC000279593480    0.0600
     46 H46       -13.3715   -1.2641   60.3236 H       1  ZINC000279593480    0.0600
     47 H47       -12.7183   -2.4501   59.1682 H       1  ZINC000279593480    0.0700
     48 H48       -12.5257   -2.7130   60.9180 H       1  ZINC000279593480    0.0700
@<TRIPOS>BOND
     1     1     2    1
     2     1    26    1
     3     1    27    1
     4     1    28    1
     5     2     3    1
     6     2    29    1
     7     2    30    1
     8     3     4    1
     9     3     5    1
    10     3    13    1
    11     5     6    1
    12     5    31    1
    13     5    32    1
    14     6    12   ar
    15     6     7   ar
    16     7     8   ar
    17     7    33    1
    18     8     9   ar
    19     8    34    1
    20     9    10    1
    21     9    11   ar
    22    11    12   ar
    23    11    35    1
    24    12    36    1
    25    13    14   am
    26    13    37    1
    27    14    15    2
    28    14    16   am
    29    16    17    1
    30    16    38    1
    31    17    18    1
    32    17    39    1
    33    17    40    1
    34    18    23    1
    35    18    19    1
    36    18    20    1
    37    19    41    1
    38    20    21    1
    39    20    42    1
    40    20    43    1
    41    21    22    1
    42    21    44    1
    43    21    45    1
    44    22    23    1
    45    23    24    1
    46    23    25    1
    47    25    46    1
    48    25    47    1
    49    25    48    1
@<TRIPOS>SUBSTRUCTURE
     1 ZINC000279593480        1 TEMP              0 ****  ****    0 ROOT


##########                                Name:    ZINC000347662449
##########                DOCK_Rotatable_Bonds:                   5
##########                         Heavy_Atoms:                  23
##########                    Molecular_Weight:              327.45
##########                DOCK_Rotatable_Bonds:                   5
##########                       Formal_Charge:                0.03
##########                     HBond_Acceptors:                   5
##########                        HBond_Donors:                   0
##########                         Heavy_Atoms:                  23
##########                          Grid_Score:          -32.116814
##########                     Grid_vdw_energy:          -32.970394
##########                      Grid_es_energy:            0.853580
##########           Internal_energy_repulsive:            6.880003

@<TRIPOS>MOLECULE
ZINC000347662449
 44 46 1 0 0
SMALL
USER_CHARGES


@<TRIPOS>ATOM
      1 C1        -18.9582   -2.7225   56.3857 C.2     1  ZINC000347662449   -0.1800
      2 C2        -18.6660   -2.0827   57.4909 C.2     1  ZINC000347662449   -0.1700
      3 C3        -17.3978   -1.2736   57.5804 C.3     1  ZINC000347662449    0.1600
      4 N4        -16.3107   -2.1226   58.0738 N.am    1  ZINC000347662449   -0.6200
      5 C5        -16.0270   -2.3631   59.4936 C.3     1  ZINC000347662449    0.1100
      6 C6        -15.1225   -3.6150   59.5269 C.3     1  ZINC000347662449   -0.1100
      7 C7        -14.4645   -3.5657   58.1285 C.3     1  ZINC000347662449   -0.1200
      8 H8        -13.5050   -3.0507   58.1763 H       1  ZINC000347662449    0.1400
      9 S9        -14.2519   -5.2380   57.4691 S.3     1  ZINC000347662449    0.0300
     10 C10       -13.4038   -4.8699   55.9691 C.2     1  ZINC000347662449    0.1900
     11 N11       -13.8685   -5.0630   54.7566 N.2     1  ZINC000347662449   -0.4500
     12 C12       -12.9500   -4.6667   53.8594 C.2     1  ZINC000347662449   -0.0100
     13 C13       -11.8754   -4.2105   54.5253 C.2     1  ZINC000347662449   -0.0400
     14 N14       -12.1552   -4.3304   55.8699 N.pl3   1  ZINC000347662449   -0.4000
     15 C15       -11.3133   -3.9736   56.9326 C.ar    1  ZINC000347662449    0.1100
     16 C16       -10.8474   -4.9455   57.8072 C.ar    1  ZINC000347662449   -0.1100
     17 C17       -10.0180   -4.5909   58.8535 C.ar    1  ZINC000347662449   -0.1000
     18 C18        -9.6520   -3.2694   59.0300 C.ar    1  ZINC000347662449   -0.0800
     19 C19        -8.7467   -2.8858   60.1721 C.3     1  ZINC000347662449   -0.1200
     20 C20       -10.1147   -2.2988   58.1602 C.ar    1  ZINC000347662449   -0.0700
     21 C21        -9.7133   -0.8594   58.3559 C.3     1  ZINC000347662449   -0.1200
     22 C22       -10.9394   -2.6480   57.1090 C.ar    1  ZINC000347662449   -0.1100
     23 C23       -15.4484   -2.7860   57.2844 C.2     1  ZINC000347662449    0.5300
     24 O24       -15.4539   -2.7578   56.0719 O.2     1  ZINC000347662449   -0.4900
     25 H25       -18.2902   -2.6700   55.5386 H       1  ZINC000347662449    0.1000
     26 H26       -19.8649   -3.3059   56.3231 H       1  ZINC000347662449    0.1000
     27 H27       -19.3340   -2.1352   58.3379 H       1  ZINC000347662449    0.1100
     28 H28       -17.1404   -0.8911   56.5927 H       1  ZINC000347662449    0.0900
     29 H29       -17.5468   -0.4392   58.2656 H       1  ZINC000347662449    0.0900
     30 H30       -15.5044   -1.5087   59.9238 H       1  ZINC000347662449    0.0800
     31 H31       -16.9530   -2.5522   60.0365 H       1  ZINC000347662449    0.0900
     32 H32       -14.3727   -3.5337   60.3138 H       1  ZINC000347662449    0.1100
     33 H33       -15.7155   -4.5216   59.6472 H       1  ZINC000347662449    0.0900
     34 H34       -13.0571   -4.7076   52.7854 H       1  ZINC000347662449    0.1800
     35 H35       -10.9671   -3.8209   54.0900 H       1  ZINC000347662449    0.1800
     36 H36       -11.1332   -5.9779   57.6701 H       1  ZINC000347662449    0.1300
     37 H37        -9.6555   -5.3466   59.5346 H       1  ZINC000347662449    0.1300
     38 H38        -7.7079   -2.9404   59.8464 H       1  ZINC000347662449    0.0800
     39 H39        -8.9747   -1.8686   60.4906 H       1  ZINC000347662449    0.0700
     40 H40        -8.9027   -3.5711   61.0053 H       1  ZINC000347662449    0.0700
     41 H41        -8.7959   -0.6595   57.8025 H       1  ZINC000347662449    0.0800
     42 H42       -10.5073   -0.2079   57.9907 H       1  ZINC000347662449    0.0700
     43 H43        -9.5467   -0.6697   59.4163 H       1  ZINC000347662449    0.0800
     44 H44       -11.3002   -1.8898   56.4299 H       1  ZINC000347662449    0.1300
@<TRIPOS>BOND
     1     1     2    2
     2     1    25    1
     3     1    26    1
     4     2     3    1
     5     2    27    1
     6     3     4    1
     7     3    28    1
     8     3    29    1
     9     4    23   am
    10     4     5    1
    11     5     6    1
    12     5    30    1
    13     5    31    1
    14     6     7    1
    15     6    32    1
    16     6    33    1
    17     7     8    1
    18     7     9    1
    19     7    23    1
    20     9    10    1
    21    10    14    1
    22    10    11    2
    23    11    12    1
    24    12    13    2
    25    12    34    1
    26    13    14    1
    27    13    35    1
    28    14    15    1
    29    15    22   ar
    30    15    16   ar
    31    16    17   ar
    32    16    36    1
    33    17    18   ar
    34    17    37    1
    35    18    19    1
    36    18    20   ar
    37    19    38    1
    38    19    39    1
    39    19    40    1
    40    20    21    1
    41    20    22   ar
    42    21    41    1
    43    21    42    1
    44    21    43    1
    45    22    44    1
    46    23    24    2
@<TRIPOS>SUBSTRUCTURE
     1 ZINC000347662449        1 TEMP              0 ****  ****    0 ROOT


##########                                Name:    ZINC000481838178
##########                DOCK_Rotatable_Bonds:                   6
##########                         Heavy_Atoms:                  29
##########                    Molecular_Weight:             408.524
##########                DOCK_Rotatable_Bonds:                   6
##########                       Formal_Charge:         -0.00999962
##########                     HBond_Acceptors:                   7
##########                        HBond_Donors:                   0
##########                         Heavy_Atoms:                  29
##########                          Grid_Score:          -32.098759
##########                     Grid_vdw_energy:          -33.453201
##########                      Grid_es_energy:            1.354442
##########           Internal_energy_repulsive:            6.128478

@<TRIPOS>MOLECULE
ZINC000481838178
 53 57 1 0 0
SMALL
USER_CHARGES


@<TRIPOS>ATOM
      1 O1        -10.1936   -4.6572   57.6490 O.2     1  ZINC000481838178   -0.5200
      2 C2        -10.2882   -3.4579   57.4951 C.2     1  ZINC000481838178    0.5500
      3 C3         -9.7848   -2.5194   58.5613 C.3     1  ZINC000481838178   -0.1500
      4 S4        -11.1555   -2.0451   59.6439 S.3     1  ZINC000481838178    0.1000
      5 C5        -10.2546   -1.4817   61.0494 C.2     1  ZINC000481838178    0.1600
      6 N6         -9.1489   -2.0063   61.5279 N.2     1  ZINC000481838178   -0.2800
      7 N7         -8.7570   -1.3501   62.5608 N.2     1  ZINC000481838178   -0.2500
      8 C8         -9.5891   -0.3620   62.8086 C.2     1  ZINC000481838178    0.2700
      9 C9         -9.4866    0.6145   63.9036 C.2     1  ZINC000481838178    0.0300
     10 C10        -8.4081    0.7943   64.7174 C.2     1  ZINC000481838178   -0.1300
     11 C11        -8.7457    1.8250   65.6156 C.2     1  ZINC000481838178   -0.2100
     12 C12        -9.9979    2.2207   65.3117 C.2     1  ZINC000481838178   -0.0100
     13 O13       -10.4404    1.4918   64.2736 O.3     1  ZINC000481838178   -0.1700
     14 N14       -10.5729   -0.4122   61.8428 N.pl3   1  ZINC000481838178   -0.4100
     15 C15       -11.6726    0.4463   61.7075 C.ar    1  ZINC000481838178    0.1000
     16 C16       -11.5068    1.7061   61.1483 C.ar    1  ZINC000481838178   -0.0800
     17 C17       -12.5924    2.5500   61.0164 C.ar    1  ZINC000481838178   -0.1100
     18 C18       -13.8433    2.1409   61.4405 C.ar    1  ZINC000481838178   -0.1000
     19 C19       -14.0116    0.8866   61.9979 C.ar    1  ZINC000481838178   -0.1100
     20 C20       -12.9309    0.0362   62.1272 C.ar    1  ZINC000481838178   -0.0900
     21 N21       -10.8385   -2.9643   56.3681 N.am    1  ZINC000481838178   -0.6200
     22 C22       -11.0079   -1.5236   56.0393 C.3     1  ZINC000481838178    0.1000
     23 C23       -11.0393   -1.5168   54.5063 C.3     1  ZINC000481838178   -0.1100
     24 H24       -10.0424   -1.6734   54.0943 H       1  ZINC000481838178    0.0900
     25 C25       -11.7137   -0.3242   53.8548 C.3     1  ZINC000481838178   -0.1100
     26 C26       -11.7316   -0.5872   52.3398 C.3     1  ZINC000481838178   -0.1200
     27 C27       -12.4507   -1.8895   52.0028 C.3     1  ZINC000481838178   -0.1200
     28 C28       -11.8636   -3.0787   52.7819 C.3     1  ZINC000481838178   -0.1000
     29 C29       -11.9538   -2.7534   54.2549 C.3     1  ZINC000481838178   -0.1100
     30 H30       -12.9800   -2.4969   54.5179 H       1  ZINC000481838178    0.0900
     31 C31       -11.3741   -3.7649   55.2390 C.3     1  ZINC000481838178    0.1200
     32 H32        -9.0132   -3.0172   59.1488 H       1  ZINC000481838178    0.1300
     33 H33        -9.3666   -1.6283   58.0931 H       1  ZINC000481838178    0.1300
     34 H34        -7.4754    0.2511   64.6807 H       1  ZINC000481838178    0.1600
     35 H35        -8.1195    2.2232   66.4002 H       1  ZINC000481838178    0.1600
     36 H36       -10.5520    2.9983   65.8163 H       1  ZINC000481838178    0.2100
     37 H37       -10.5300    2.0263   60.8171 H       1  ZINC000481838178    0.1300
     38 H38       -12.4640    3.5302   60.5817 H       1  ZINC000481838178    0.1400
     39 H39       -14.6906    2.8025   61.3367 H       1  ZINC000481838178    0.1300
     40 H40       -14.9898    0.5701   62.3287 H       1  ZINC000481838178    0.1400
     41 H41       -13.0629   -0.9432   62.5626 H       1  ZINC000481838178    0.1300
     42 H42       -11.9454   -1.1436   56.4452 H       1  ZINC000481838178    0.0800
     43 H43       -10.1632   -0.9424   56.4094 H       1  ZINC000481838178    0.0800
     44 H44       -12.7335   -0.2250   54.2268 H       1  ZINC000481838178    0.0700
     45 H45       -11.1495    0.5838   54.0677 H       1  ZINC000481838178    0.0700
     46 H46       -12.2392    0.2387   51.8414 H       1  ZINC000481838178    0.0600
     47 H47       -10.7054   -0.6433   51.9765 H       1  ZINC000481838178    0.0600
     48 H48       -13.5069   -1.7874   52.2520 H       1  ZINC000481838178    0.0600
     49 H49       -12.3556   -2.0822   50.9342 H       1  ZINC000481838178    0.0700
     50 H50       -12.4334   -3.9824   52.5655 H       1  ZINC000481838178    0.0700
     51 H51       -10.8184   -3.2228   52.5078 H       1  ZINC000481838178    0.0700
     52 H52       -10.5819   -4.3422   54.7625 H       1  ZINC000481838178    0.0700
     53 H53       -12.1585   -4.4290   55.6020 H       1  ZINC000481838178    0.0700
@<TRIPOS>BOND
     1     1     2    2
     2     2     3    1
     3     2    21   am
     4     3     4    1
     5     3    32    1
     6     3    33    1
     7     4     5    1
     8     5    14    1
     9     5     6    2
    10     6     7    1
    11     7     8    2
    12     8     9    1
    13     8    14    1
    14     9    13    1
    15     9    10    2
    16    10    11    1
    17    10    34    1
    18    11    12    2
    19    11    35    1
    20    12    13    1
    21    12    36    1
    22    14    15    1
    23    15    20   ar
    24    15    16   ar
    25    16    17   ar
    26    16    37    1
    27    17    18   ar
    28    17    38    1
    29    18    19   ar
    30    18    39    1
    31    19    20   ar
    32    19    40    1
    33    20    41    1
    34    21    31    1
    35    21    22    1
    36    22    23    1
    37    22    42    1
    38    22    43    1
    39    23    24    1
    40    23    29    1
    41    23    25    1
    42    25    26    1
    43    25    44    1
    44    25    45    1
    45    26    27    1
    46    26    46    1
    47    26    47    1
    48    27    28    1
    49    27    48    1
    50    27    49    1
    51    28    29    1
    52    28    50    1
    53    28    51    1
    54    29    30    1
    55    29    31    1
    56    31    52    1
    57    31    53    1
@<TRIPOS>SUBSTRUCTURE
     1 ZINC000481838178        1 TEMP              0 ****  ****    0 ROOT


##########                                Name:    ZINC000285228948
##########                DOCK_Rotatable_Bonds:                   8
##########                         Heavy_Atoms:                  23
##########                    Molecular_Weight:             339.822
##########                DOCK_Rotatable_Bonds:                   8
##########                       Formal_Charge:           0.0299997
##########                     HBond_Acceptors:                   7
##########                        HBond_Donors:                   3
##########                         Heavy_Atoms:                  23
##########                          Grid_Score:          -32.076687
##########                     Grid_vdw_energy:          -31.196114
##########                      Grid_es_energy:           -0.880572
##########           Internal_energy_repulsive:           25.442177

@<TRIPOS>MOLECULE
ZINC000285228948
 45 46 1 0 0
SMALL
USER_CHARGES


@<TRIPOS>ATOM
      1 C1         -9.6236   -0.2413   58.5784 C.3     1  <0>        -0.1600
      2 C2        -10.4993   -1.2002   59.3875 C.3     1  <0>         0.1800
      3 H3        -11.4143   -1.4114   58.8340 H       1  <0>         0.1100
      4 C4        -10.8470   -0.5679   60.7104 C.ar    1  <0>        -0.0900
      5 C5        -10.0204    0.3984   61.2529 C.ar    1  <0>        -0.1000
      6 C6        -10.3388    0.9787   62.4662 C.ar    1  <0>        -0.1100
      7 C7        -11.4849    0.5924   63.1379 C.ar    1  <0>        -0.0300
      8 Cl8       -11.8858    1.3212   64.6617 Cl      1  <0>        -0.0700
      9 C9        -12.3118   -0.3748   62.5946 C.ar    1  <0>        -0.1100
     10 C10       -11.9953   -0.9502   61.3784 C.ar    1  <0>        -0.0900
     11 N11        -9.7699   -2.4493   59.6199 N.am    1  <0>        -0.6100
     12 C12        -8.8987   -2.5819   60.7902 C.3     1  <0>         0.0600
     13 C13        -9.9003   -3.4764   58.7570 C.2     1  <0>         0.5200
     14 O14        -9.2952   -4.5100   58.9486 O.2     1  <0>        -0.5200
     15 C15       -10.7978   -3.3407   57.5541 C.3     1  <0>         0.0300
     16 N16       -12.1398   -3.8378   57.8858 N.3     1  <0>        -0.4900
     17 C17       -12.5156   -4.9787   57.0122 C.3     1  <0>         0.0400
     18 C18       -14.0608   -5.0140   57.1201 C.3     1  <0>        -0.1400
     19 C19       -14.4379   -3.5156   57.1718 C.3     1  <0>         0.1100
     20 O20       -14.8092   -3.0525   55.8718 O.3     1  <0>        -0.5400
     21 C21       -15.5651   -3.2932   58.1469 C.2     1  <0>         0.5000
     22 N22       -16.7411   -2.7958   57.7155 N.am    1  <0>        -0.8500
     23 O23       -15.4141   -3.5619   59.3200 O.2     1  <0>        -0.5200
     24 C24       -13.1636   -2.7964   57.6516 C.3     1  <0>         0.0600
     25 H25       -10.1663    0.6880   58.4054 H       1  <0>         0.0700
     26 H26        -8.7086   -0.0301   59.1318 H       1  <0>         0.0600
     27 H27        -9.3721   -0.6986   57.6215 H       1  <0>         0.0700
     28 H28        -9.1256    0.6996   60.7286 H       1  <0>         0.1400
     29 H29        -9.6928    1.7333   62.8901 H       1  <0>         0.1300
     30 H30       -13.2064   -0.6769   63.1186 H       1  <0>         0.1400
     31 H31       -12.6409   -1.7049   60.9540 H       1  <0>         0.1300
     32 H32        -9.4830   -2.9349   61.6400 H       1  <0>         0.0600
     33 H33        -8.1049   -3.2967   60.5731 H       1  <0>         0.0800
     34 H34        -8.4600   -1.6130   61.0283 H       1  <0>         0.0800
     35 H35       -10.8603   -2.2918   57.2639 H       1  <0>         0.1100
     36 H36       -10.3887   -3.9223   56.7281 H       1  <0>         0.0700
     37 H37       -12.2059   -4.7941   55.9836 H       1  <0>         0.0400
     38 H38       -12.0826   -5.9073   57.3846 H       1  <0>         0.1200
     39 H39       -14.4980   -5.4918   56.2434 H       1  <0>         0.0900
     40 H40       -14.3722   -5.5218   58.0330 H       1  <0>         0.0900
     41 H41       -15.7507   -3.1498   55.6737 H       1  <0>         0.3800
     42 H42       -17.4663   -2.6516   58.3433 H       1  <0>         0.4000
     43 H43       -16.8623   -2.5820   56.7771 H       1  <0>         0.4100
     44 H44       -13.3666   -2.2601   58.5786 H       1  <0>         0.1100
     45 H45       -12.8184   -2.1019   56.8856 H       1  <0>         0.0700
@<TRIPOS>BOND
     1     1     2    1
     2     1    25    1
     3     1    26    1
     4     1    27    1
     5     2     3    1
     6     2     4    1
     7     2    11    1
     8     4    10   ar
     9     4     5   ar
    10     5     6   ar
    11     5    28    1
    12     6     7   ar
    13     6    29    1
    14     7     8    1
    15     7     9   ar
    16     9    10   ar
    17     9    30    1
    18    10    31    1
    19    11    12    1
    20    11    13   am
    21    12    32    1
    22    12    33    1
    23    12    34    1
    24    13    14    2
    25    13    15    1
    26    15    16    1
    27    15    35    1
    28    15    36    1
    29    16    24    1
    30    16    17    1
    31    17    18    1
    32    17    37    1
    33    17    38    1
    34    18    19    1
    35    18    39    1
    36    18    40    1
    37    19    20    1
    38    19    21    1
    39    19    24    1
    40    20    41    1
    41    21    22   am
    42    21    23    2
    43    22    42    1
    44    22    43    1
    45    24    44    1
    46    24    45    1
@<TRIPOS>SUBSTRUCTURE
     1 <0>         1 TEMP              0 ****  ****    0 ROOT


##########                                Name:    ZINC000028372981
##########                DOCK_Rotatable_Bonds:                   7
##########                         Heavy_Atoms:                  28
##########                    Molecular_Weight:             380.443
##########                DOCK_Rotatable_Bonds:                   7
##########                       Formal_Charge:         1.78814e-07
##########                     HBond_Acceptors:                   6
##########                        HBond_Donors:                   1
##########                         Heavy_Atoms:                  28
##########                          Grid_Score:          -32.050953
##########                     Grid_vdw_energy:          -32.149937
##########                      Grid_es_energy:            0.098983
##########           Internal_energy_repulsive:           17.169291

@<TRIPOS>MOLECULE
ZINC000028372981
 52 54 1 0 0
SMALL
USER_CHARGES


@<TRIPOS>ATOM
      1 C1         -9.1712    0.3263   64.1957 C.3     1  ZINC000028372981   -0.1800
      2 C2         -9.0903   -0.5646   62.9830 C.2     1  ZINC000028372981    0.5200
      3 O3         -8.1748   -1.3516   62.8688 O.2     1  ZINC000028372981   -0.5100
      4 N4        -10.0355   -0.4867   62.0253 N.am    1  ZINC000028372981   -0.5500
      5 C5        -11.1852    0.4210   62.0538 C.3     1  ZINC000028372981    0.1000
      6 C6        -11.9584    0.1339   60.7563 C.3     1  ZINC000028372981   -0.0900
      7 C7        -11.1583   -0.9512   60.0707 C.ar    1  ZINC000028372981   -0.1500
      8 C8        -11.3625   -1.6015   58.8744 C.ar    1  ZINC000028372981    0.0000
      9 C9        -10.4670   -2.5887   58.4530 C.ar    1  ZINC000028372981   -0.1600
     10 C10       -10.6838   -3.2919   57.1752 C.2     1  ZINC000028372981    0.5200
     11 O11       -10.3549   -4.4559   57.0590 O.2     1  ZINC000028372981   -0.5000
     12 O12       -11.2464   -2.6439   56.1364 O.3     1  ZINC000028372981   -0.3200
     13 C13       -11.8045   -3.4610   55.0739 C.3     1  ZINC000028372981    0.0700
     14 H14       -12.1813   -4.3941   55.4928 H       1  ZINC000028372981    0.1200
     15 C15       -10.7175   -3.7676   54.0417 C.3     1  ZINC000028372981   -0.1700
     16 C16       -12.9336   -2.7170   54.4084 C.2     1  ZINC000028372981    0.5200
     17 O17       -13.1779   -1.5730   54.7285 O.2     1  ZINC000028372981   -0.4900
     18 N18       -13.6719   -3.3230   53.4575 N.am    1  ZINC000028372981   -0.6600
     19 C19       -14.7202   -2.6323   52.8396 C.ar    1  ZINC000028372981    0.1500
     20 C20       -16.0309   -2.8519   53.2423 C.ar    1  ZINC000028372981   -0.1300
     21 C21       -17.0635   -2.1681   52.6306 C.ar    1  ZINC000028372981   -0.1000
     22 C22       -16.7931   -1.2653   51.6189 C.ar    1  ZINC000028372981   -0.1300
     23 C23       -15.4888   -1.0440   51.2158 C.ar    1  ZINC000028372981   -0.0700
     24 C24       -15.1986   -0.0589   50.1130 C.3     1  ZINC000028372981   -0.1200
     25 C25       -14.4520   -1.7251   51.8226 C.ar    1  ZINC000028372981   -0.1200
     26 C26       -13.0312   -1.4842   51.3821 C.3     1  ZINC000028372981   -0.1200
     27 C27        -9.3611   -2.9003   59.2495 C.ar    1  ZINC000028372981   -0.0200
     28 C28        -9.1623   -2.2426   60.4391 C.ar    1  ZINC000028372981   -0.1800
     29 C29       -10.0606   -1.2580   60.8648 C.ar    1  ZINC000028372981    0.1900
     30 H30       -10.1022    0.1317   64.7281 H       1  ZINC000028372981    0.1000
     31 H31        -8.3267    0.1218   64.8538 H       1  ZINC000028372981    0.1000
     32 H32        -9.1433    1.3700   63.8824 H       1  ZINC000028372981    0.1000
     33 H33       -11.8112    0.2109   62.9211 H       1  ZINC000028372981    0.0900
     34 H34       -10.8483    1.4574   62.0718 H       1  ZINC000028372981    0.0900
     35 H35       -12.9639   -0.2204   60.9830 H       1  ZINC000028372981    0.1000
     36 H36       -12.0020    1.0278   60.1339 H       1  ZINC000028372981    0.1000
     37 H37       -12.2172   -1.3518   58.2633 H       1  ZINC000028372981    0.1400
     38 H38       -10.3407   -2.8345   53.6228 H       1  ZINC000028372981    0.0800
     39 H39        -9.9008   -4.3056   54.5231 H       1  ZINC000028372981    0.0800
     40 H40       -11.1364   -4.3810   53.2441 H       1  ZINC000028372981    0.0800
     41 H41       -13.4765   -4.2380   53.2015 H       1  ZINC000028372981    0.4100
     42 H42       -16.2422   -3.5533   54.0359 H       1  ZINC000028372981    0.1400
     43 H43       -18.0830   -2.3384   52.9434 H       1  ZINC000028372981    0.1300
     44 H44       -17.6023   -0.7317   51.1424 H       1  ZINC000028372981    0.1200
     45 H45       -15.0416    0.9308   50.5418 H       1  ZINC000028372981    0.0700
     46 H46       -14.3021   -0.3685   49.5758 H       1  ZINC000028372981    0.0700
     47 H47       -16.0423   -0.0264   49.4235 H       1  ZINC000028372981    0.0700
     48 H48       -12.6008   -0.6738   51.9705 H       1  ZINC000028372981    0.0700
     49 H49       -12.4458   -2.3915   51.5308 H       1  ZINC000028372981    0.0600
     50 H50       -13.0191   -1.2128   50.3266 H       1  ZINC000028372981    0.0800
     51 H51        -8.6622   -3.6586   58.9289 H       1  ZINC000028372981    0.1500
     52 H52        -8.3063   -2.4876   61.0505 H       1  ZINC000028372981    0.1500
@<TRIPOS>BOND
     1     1     2    1
     2     1    30    1
     3     1    31    1
     4     1    32    1
     5     2     3    2
     6     2     4   am
     7     4    29    1
     8     4     5    1
     9     5     6    1
    10     5    33    1
    11     5    34    1
    12     6     7    1
    13     6    35    1
    14     6    36    1
    15     7    29   ar
    16     7     8   ar
    17     8     9   ar
    18     8    37    1
    19     9    10    1
    20     9    27   ar
    21    10    11    2
    22    10    12    1
    23    12    13    1
    24    13    14    1
    25    13    15    1
    26    13    16    1
    27    15    38    1
    28    15    39    1
    29    15    40    1
    30    16    17    2
    31    16    18   am
    32    18    19    1
    33    18    41    1
    34    19    25   ar
    35    19    20   ar
    36    20    21   ar
    37    20    42    1
    38    21    22   ar
    39    21    43    1
    40    22    23   ar
    41    22    44    1
    42    23    24    1
    43    23    25   ar
    44    24    45    1
    45    24    46    1
    46    24    47    1
    47    25    26    1
    48    26    48    1
    49    26    49    1
    50    26    50    1
    51    27    28   ar
    52    27    51    1
    53    28    29   ar
    54    28    52    1
@<TRIPOS>SUBSTRUCTURE
     1 ZINC000028372981        1 TEMP              0 ****  ****    0 ROOT


##########                                Name:    ZINC001064463188
##########                DOCK_Rotatable_Bonds:                   6
##########                         Heavy_Atoms:                  25
##########                    Molecular_Weight:             342.441
##########                DOCK_Rotatable_Bonds:                   6
##########                       Formal_Charge:          -0.0100004
##########                     HBond_Acceptors:                   6
##########                        HBond_Donors:                   0
##########                         Heavy_Atoms:                  25
##########                          Grid_Score:          -32.047985
##########                     Grid_vdw_energy:          -32.160603
##########                      Grid_es_energy:            0.112617
##########           Internal_energy_repulsive:           19.316978

@<TRIPOS>MOLECULE
ZINC001064463188
 51 54 1 0 0
SMALL
USER_CHARGES


@<TRIPOS>ATOM
      1 C1        -10.6813    0.4611   60.5573 C.3     1  ZINC001064463188    0.0400
      2 O2        -10.4434   -0.8671   61.0279 O.3     1  ZINC001064463188   -0.3000
      3 C3        -10.1764   -1.8121   60.0940 C.ar    1  ZINC001064463188    0.3900
      4 C4         -9.1302   -2.7142   60.2803 C.ar    1  ZINC001064463188   -0.2800
      5 C5         -8.8937   -3.6616   59.3017 C.ar    1  ZINC001064463188    0.2000
      6 N6         -9.6623   -3.6845   58.2235 N.ar    1  ZINC001064463188   -0.5800
      7 C7        -10.6498   -2.8141   58.0737 C.ar    1  ZINC001064463188    0.5300
      8 N8        -11.4317   -2.8702   56.9331 N.3     1  ZINC001064463188   -0.4500
      9 C9        -11.2807   -1.6559   56.1346 C.3     1  ZINC001064463188    0.0700
     10 C10       -12.6502   -1.1748   55.6406 C.3     1  ZINC001064463188   -0.1200
     11 C11       -13.2647   -2.1364   54.6414 C.3     1  ZINC001064463188    0.1400
     12 H12       -14.2593   -1.7922   54.3580 H       1  ZINC001064463188    0.0900
     13 C13       -12.3909   -2.2890   53.3947 C.3     1  ZINC001064463188   -0.1300
     14 C14       -11.4426   -3.4517   53.7367 C.3     1  ZINC001064463188   -0.1300
     15 C15       -12.0854   -4.1553   54.9370 C.3     1  ZINC001064463188    0.1200
     16 H16       -12.2910   -5.1959   54.6862 H       1  ZINC001064463188    0.0900
     17 C17       -11.1427   -4.0998   56.1490 C.3     1  ZINC001064463188    0.0600
     18 N18       -13.3570   -3.4733   55.2984 N.am    1  ZINC001064463188   -0.6000
     19 C19       -14.3613   -3.9617   56.0529 C.2     1  ZINC001064463188    0.5800
     20 O20       -14.2817   -5.0818   56.5200 O.2     1  ZINC001064463188   -0.5400
     21 C21       -15.5537   -3.1400   56.3115 C.2     1  ZINC001064463188   -0.2200
     22 C22       -15.8081   -2.7062   57.5426 C.2     1  ZINC001064463188    0.0000
     23 C23       -17.0298   -1.8645   57.8075 C.3     1  ZINC001064463188   -0.1300
     24 C24       -14.8749   -3.0564   58.6729 C.3     1  ZINC001064463188   -0.1200
     25 C25       -14.6563   -2.0029   59.7607 C.3     1  ZINC001064463188   -0.1900
     26 C26       -15.4882   -3.2514   60.0609 C.3     1  ZINC001064463188   -0.1600
     27 N27       -10.9112   -1.8953   58.9914 N.ar    1  ZINC001064463188   -0.5900
     28 H28       -11.5410    0.4605   59.8870 H       1  ZINC001064463188    0.0600
     29 H29       -10.8818    1.1164   61.4049 H       1  ZINC001064463188    0.1000
     30 H30        -9.8027    0.8194   60.0209 H       1  ZINC001064463188    0.0600
     31 H31        -8.5178   -2.6737   61.1690 H       1  ZINC001064463188    0.1500
     32 H32        -8.0907   -4.3748   59.4151 H       1  ZINC001064463188    0.1800
     33 H33       -10.8226   -0.8772   56.7443 H       1  ZINC001064463188    0.0800
     34 H34       -10.6403   -1.8644   55.2776 H       1  ZINC001064463188    0.0600
     35 H35       -13.3200   -1.0752   56.4946 H       1  ZINC001064463188    0.0800
     36 H36       -12.5338   -0.1994   55.1680 H       1  ZINC001064463188    0.0800
     37 H37       -13.0032   -2.5385   52.5281 H       1  ZINC001064463188    0.0800
     38 H38       -11.8243   -1.3759   53.2122 H       1  ZINC001064463188    0.0900
     39 H39       -11.3659   -4.1377   52.8930 H       1  ZINC001064463188    0.0800
     40 H40       -10.4577   -3.0699   54.0052 H       1  ZINC001064463188    0.0800
     41 H41       -10.1088   -4.0611   55.8061 H       1  ZINC001064463188    0.0700
     42 H42       -11.2913   -4.9847   56.7679 H       1  ZINC001064463188    0.0900
     43 H43       -16.2226   -2.8891   55.5014 H       1  ZINC001064463188    0.1200
     44 H44       -17.8699   -2.5122   58.0584 H       1  ZINC001064463188    0.0800
     45 H45       -16.8316   -1.1880   58.6388 H       1  ZINC001064463188    0.0800
     46 H46       -17.2715   -1.2845   56.9168 H       1  ZINC001064463188    0.0700
     47 H47       -14.0268   -3.6863   58.4042 H       1  ZINC001064463188    0.1400
     48 H48       -13.6643   -1.9396   60.2078 H       1  ZINC001064463188    0.1000
     49 H49       -15.1876   -1.0567   59.6589 H       1  ZINC001064463188    0.1000
     50 H50       -16.5667   -3.1265   60.1566 H       1  ZINC001064463188    0.0900
     51 H51       -15.0435   -4.0094   60.7056 H       1  ZINC001064463188    0.1000
@<TRIPOS>BOND
     1     1     2    1
     2     1    28    1
     3     1    29    1
     4     1    30    1
     5     2     3    1
     6     3    27   ar
     7     3     4   ar
     8     4     5   ar
     9     4    31    1
    10     5     6   ar
    11     5    32    1
    12     6     7   ar
    13     7     8    1
    14     7    27   ar
    15     8    17    1
    16     8     9    1
    17     9    10    1
    18     9    33    1
    19     9    34    1
    20    10    11    1
    21    10    35    1
    22    10    36    1
    23    11    12    1
    24    11    18    1
    25    11    13    1
    26    13    14    1
    27    13    37    1
    28    13    38    1
    29    14    15    1
    30    14    39    1
    31    14    40    1
    32    15    16    1
    33    15    17    1
    34    15    18    1
    35    17    41    1
    36    17    42    1
    37    18    19   am
    38    19    20    2
    39    19    21    1
    40    21    22    2
    41    21    43    1
    42    22    23    1
    43    22    24    1
    44    23    44    1
    45    23    45    1
    46    23    46    1
    47    24    26    1
    48    24    25    1
    49    24    47    1
    50    25    26    1
    51    25    48    1
    52    25    49    1
    53    26    50    1
    54    26    51    1
@<TRIPOS>SUBSTRUCTURE
     1 ZINC001064463188        1 TEMP              0 ****  ****    0 ROOT


##########                                Name:    ZINC001023148918
##########                DOCK_Rotatable_Bonds:                   6
##########                         Heavy_Atoms:                  25
##########                    Molecular_Weight:             348.402
##########                DOCK_Rotatable_Bonds:                   6
##########                       Formal_Charge:           0.0199999
##########                     HBond_Acceptors:                   8
##########                        HBond_Donors:                   2
##########                         Heavy_Atoms:                  25
##########                          Grid_Score:          -32.035450
##########                     Grid_vdw_energy:          -30.440416
##########                      Grid_es_energy:           -1.595034
##########           Internal_energy_repulsive:           14.766074

@<TRIPOS>MOLECULE
ZINC001023148918
 49 52 1 0 0
SMALL
USER_CHARGES


@<TRIPOS>ATOM
      1 C1         -6.1314    1.5693   66.4764 C.3     1  ZINC001023148918   -0.0700
      2 C2         -7.5229    1.4290   65.9149 C.2     1  ZINC001023148918    0.0200
      3 N3         -8.6188    1.9116   66.4425 N.2     1  ZINC001023148918   -0.2700
      4 N4         -9.6416    1.6204   65.7223 N.pl3   1  ZINC001023148918   -0.2500
      5 C5        -11.0228    2.0055   66.0224 C.3     1  ZINC001023148918    0.0800
      6 C6         -9.2449    0.8970   64.6335 C.2     1  ZINC001023148918   -0.0400
      7 C7        -10.1052    0.3687   63.5628 C.2     1  ZINC001023148918    0.6000
      8 O8        -11.3014    0.5886   63.5796 O.2     1  ZINC001023148918   -0.5300
      9 N9         -9.5677   -0.3586   62.5635 N.am    1  ZINC001023148918   -0.7000
     10 C10       -10.4242   -0.8844   61.4977 C.3     1  ZINC001023148918    0.1500
     11 H11       -11.3401   -1.3086   61.9088 H       1  ZINC001023148918    0.1200
     12 C12        -9.6656   -1.9275   60.6394 C.3     1  ZINC001023148918    0.1000
     13 N13       -10.3461   -1.9069   59.3318 N.am    1  ZINC001023148918   -0.6200
     14 C14       -10.3609   -2.9157   58.4381 C.2     1  ZINC001023148918    0.5400
     15 O15        -9.7781   -3.9509   58.6824 O.2     1  ZINC001023148918   -0.5200
     16 C16       -11.1017   -2.7573   57.1354 C.3     1  ZINC001023148918   -0.1400
     17 H17       -10.7711   -1.8605   56.6114 H       1  ZINC001023148918    0.1100
     18 C18       -12.6326   -2.7203   57.3752 C.3     1  ZINC001023148918   -0.1400
     19 C19       -13.1352   -3.9676   56.5881 C.3     1  ZINC001023148918    0.0600
     20 H20       -14.1025   -4.3600   56.9023 H       1  ZINC001023148918    0.1300
     21 C21       -13.0302   -3.5754   55.0837 C.3     1  ZINC001023148918   -0.1500
     22 C22       -11.5015   -3.6016   54.8283 C.3     1  ZINC001023148918   -0.1500
     23 C23       -10.9189   -4.0191   56.2395 C.3     1  ZINC001023148918    0.0900
     24 H24        -9.9210   -4.4575   56.2219 H       1  ZINC001023148918    0.1400
     25 O25       -11.9991   -4.8801   56.7430 O.3     1  ZINC001023148918   -0.3600
     26 C26       -11.0065   -0.6041   59.1645 C.3     1  ZINC001023148918    0.0700
     27 C27       -10.7418    0.2126   60.4474 C.3     1  ZINC001023148918    0.0900
     28 H28        -9.8873    0.8758   60.3130 H       1  ZINC001023148918    0.0800
     29 O29       -11.9030    0.9566   60.8217 O.3     1  ZINC001023148918   -0.5500
     30 C30        -7.8709    0.7661   64.7358 C.2     1  ZINC001023148918   -0.1800
     31 H31        -5.6710    2.4760   66.0842 H       1  ZINC001023148918    0.0800
     32 H32        -6.1826    1.6288   67.5636 H       1  ZINC001023148918    0.0700
     33 H33        -5.5342    0.7043   66.1876 H       1  ZINC001023148918    0.0800
     34 H34       -11.2170    3.0016   65.6244 H       1  ZINC001023148918    0.0900
     35 H35       -11.7069    1.2915   65.5637 H       1  ZINC001023148918    0.1100
     36 H36       -11.1724    2.0101   67.1019 H       1  ZINC001023148918    0.0900
     37 H37        -8.6138   -0.5339   62.5502 H       1  ZINC001023148918    0.4100
     38 H38        -8.6205   -1.6390   60.5278 H       1  ZINC001023148918    0.0800
     39 H39        -9.7408   -2.9169   61.0908 H       1  ZINC001023148918    0.0900
     40 H40       -12.8596   -2.8165   58.4369 H       1  ZINC001023148918    0.0800
     41 H41       -13.0653   -1.8065   56.9678 H       1  ZINC001023148918    0.0900
     42 H42       -13.5390   -4.3079   54.4572 H       1  ZINC001023148918    0.0800
     43 H43       -13.4326   -2.5763   54.9162 H       1  ZINC001023148918    0.0800
     44 H44       -11.2487   -4.3471   54.0745 H       1  ZINC001023148918    0.0800
     45 H45       -11.1423   -2.6156   54.5336 H       1  ZINC001023148918    0.0800
     46 H46       -10.5891   -0.0851   58.3015 H       1  ZINC001023148918    0.0800
     47 H47       -12.0788   -0.7465   59.0311 H       1  ZINC001023148918    0.0900
     48 H48       -11.7279    1.6674   61.4535 H       1  ZINC001023148918    0.3900
     49 H49        -7.2092    0.2545   64.0526 H       1  ZINC001023148918    0.1600
@<TRIPOS>BOND
     1     1     2    1
     2     1    31    1
     3     1    32    1
     4     1    33    1
     5     2    30    1
     6     2     3    2
     7     3     4    1
     8     4     5    1
     9     4     6    1
    10     5    34    1
    11     5    35    1
    12     5    36    1
    13     6     7    1
    14     6    30    2
    15     7     8    2
    16     7     9   am
    17     9    10    1
    18     9    37    1
    19    10    11    1
    20    10    27    1
    21    10    12    1
    22    12    13    1
    23    12    38    1
    24    12    39    1
    25    13    14   am
    26    13    26    1
    27    14    15    2
    28    14    16    1
    29    16    17    1
    30    16    23    1
    31    16    18    1
    32    18    19    1
    33    18    40    1
    34    18    41    1
    35    19    20    1
    36    19    25    1
    37    19    21    1
    38    21    22    1
    39    21    42    1
    40    21    43    1
    41    22    23    1
    42    22    44    1
    43    22    45    1
    44    23    24    1
    45    23    25    1
    46    26    27    1
    47    26    46    1
    48    26    47    1
    49    27    28    1
    50    27    29    1
    51    29    48    1
    52    30    49    1
@<TRIPOS>SUBSTRUCTURE
     1 ZINC001023148918        1 TEMP              0 ****  ****    0 ROOT


##########                                Name:    ZINC000637608314
##########                DOCK_Rotatable_Bonds:                   9
##########                         Heavy_Atoms:                  28
##########                    Molecular_Weight:             387.479
##########                DOCK_Rotatable_Bonds:                   9
##########                       Formal_Charge:           0.0499991
##########                     HBond_Acceptors:                   7
##########                        HBond_Donors:                   2
##########                         Heavy_Atoms:                  28
##########                          Grid_Score:          -32.016609
##########                     Grid_vdw_energy:          -28.084995
##########                      Grid_es_energy:           -3.931616
##########           Internal_energy_repulsive:           20.144531

@<TRIPOS>MOLECULE
ZINC000637608314
 57 59 1 0 0
SMALL
USER_CHARGES


@<TRIPOS>ATOM
      1 C1        -11.9479   -3.5733   55.1510 C.3     1  ZINC000637608314   -0.1400
      2 C2        -13.4547   -3.8372   55.1830 C.3     1  ZINC000637608314   -0.0400
      3 C3        -14.0759   -3.4088   53.8520 C.3     1  ZINC000637608314   -0.1500
      4 C4        -13.7063   -5.3298   55.4062 C.3     1  ZINC000637608314   -0.1500
      5 C5        -14.0791   -3.0492   56.3055 C.2     1  ZINC000637608314    0.1900
      6 C6        -14.1809   -1.7034   56.2029 C.2     1  ZINC000637608314   -0.2400
      7 C7        -14.7608   -0.9641   57.2434 C.2     1  ZINC000637608314    0.0200
      8 C8        -15.2167   -1.6163   58.3512 C.2     1  ZINC000637608314   -0.2400
      9 C9        -15.8446   -0.8457   59.4839 C.3     1  ZINC000637608314    0.2100
     10 N10       -14.8809   -0.7158   60.5795 N.am    1  ZINC000637608314   -0.7300
     11 C11       -14.7604    0.4553   61.2357 C.2     1  ZINC000637608314    0.7100
     12 O12       -15.4505    1.4043   60.9174 O.2     1  ZINC000637608314   -0.5900
     13 N13       -13.8748    0.5743   62.2448 N.am    1  ZINC000637608314   -0.6200
     14 C14       -13.0420   -0.5687   62.6271 C.3     1  ZINC000637608314    0.2000
     15 C15       -11.6831   -0.4357   61.9893 C.2     1  ZINC000637608314   -0.0400
     16 C16       -11.4455   -0.1765   60.6910 C.2     1  ZINC000637608314   -0.1900
     17 C17       -10.0412   -0.1385   60.5313 C.2     1  ZINC000637608314   -0.2200
     18 C18        -9.5047   -0.3767   61.7416 C.2     1  ZINC000637608314   -0.0300
     19 O19       -10.5040   -0.5503   62.6220 O.3     1  ZINC000637608314   -0.1700
     20 C20       -13.7452    1.8467   62.9592 C.3     1  ZINC000637608314    0.1300
     21 C21       -14.6611    1.8392   64.1847 C.3     1  ZINC000637608314    0.0700
     22 H22       -15.1637    2.8020   64.2765 H       1  ZINC000637608314    0.0900
     23 C23       -13.8323    1.5577   65.4563 C.3     1  ZINC000637608314   -0.1500
     24 C24       -14.7771    0.6289   66.2667 C.3     1  ZINC000637608314   -0.1600
     25 C25       -15.4670   -0.1580   65.1241 C.3     1  ZINC000637608314    0.0500
     26 O26       -15.6326    0.7941   64.0589 O.3     1  ZINC000637608314   -0.3800
     27 C27       -15.0952   -3.0144   58.4250 C.2     1  ZINC000637608314    0.5300
     28 O28       -15.4995   -3.6107   59.4104 O.2     1  ZINC000637608314   -0.5400
     29 N29       -14.5385   -3.6972   57.4065 N.am    1  ZINC000637608314   -0.6000
     30 H30       -11.7686   -2.5100   54.9919 H       1  ZINC000637608314    0.0700
     31 H31       -11.5055   -3.8786   56.0992 H       1  ZINC000637608314    0.0700
     32 H32       -11.4963   -4.1434   54.3391 H       1  ZINC000637608314    0.0700
     33 H33       -13.6243   -3.9789   53.0401 H       1  ZINC000637608314    0.0700
     34 H34       -15.1493   -3.5970   53.8747 H       1  ZINC000637608314    0.0600
     35 H35       -13.8965   -2.3455   53.6929 H       1  ZINC000637608314    0.0700
     36 H36       -13.2639   -5.6350   56.3545 H       1  ZINC000637608314    0.0700
     37 H37       -14.7797   -5.5178   55.4290 H       1  ZINC000637608314    0.0600
     38 H38       -13.2547   -5.8999   54.5943 H       1  ZINC000637608314    0.0700
     39 H39       -13.8155   -1.1995   55.3203 H       1  ZINC000637608314    0.1500
     40 H40       -14.8451    0.1101   57.1687 H       1  ZINC000637608314    0.1400
     41 H41       -16.1321    0.1456   59.1334 H       1  ZINC000637608314    0.0800
     42 H42       -16.7283   -1.3762   59.8383 H       1  ZINC000637608314    0.0800
     43 H43       -14.3294   -1.4726   60.8327 H       1  ZINC000637608314    0.4000
     44 H44       -12.9337   -0.5928   63.7115 H       1  ZINC000637608314    0.1200
     45 H45       -13.5136   -1.4912   62.2886 H       1  ZINC000637608314    0.0900
     46 H46       -12.1853   -0.0268   59.9187 H       1  ZINC000637608314    0.1500
     47 H47        -9.5026    0.0461   59.6136 H       1  ZINC000637608314    0.1500
     48 H48        -8.4495   -0.4175   61.9678 H       1  ZINC000637608314    0.2000
     49 H49       -12.7116    1.9801   63.2789 H       1  ZINC000637608314    0.0800
     50 H50       -14.0295    2.6653   62.2980 H       1  ZINC000637608314    0.1000
     51 H51       -12.9031    1.0446   65.2081 H       1  ZINC000637608314    0.0800
     52 H52       -13.6334    2.4801   66.0019 H       1  ZINC000637608314    0.0900
     53 H53       -14.2101   -0.0379   66.9164 H       1  ZINC000637608314    0.0800
     54 H54       -15.5021    1.2083   66.8382 H       1  ZINC000637608314    0.0800
     55 H55       -14.8353   -0.9845   64.7989 H       1  ZINC000637608314    0.0600
     56 H56       -16.4377   -0.5293   65.4529 H       1  ZINC000637608314    0.0800
     57 H57       -14.4579   -4.6621   57.4634 H       1  ZINC000637608314    0.4100
@<TRIPOS>BOND
     1     1     2    1
     2     1    30    1
     3     1    31    1
     4     1    32    1
     5     2     3    1
     6     2     4    1
     7     2     5    1
     8     3    33    1
     9     3    34    1
    10     3    35    1
    11     4    36    1
    12     4    37    1
    13     4    38    1
    14     5    29    1
    15     5     6    2
    16     6     7    1
    17     6    39    1
    18     7     8    2
    19     7    40    1
    20     8     9    1
    21     8    27    1
    22     9    10    1
    23     9    41    1
    24     9    42    1
    25    10    11   am
    26    10    43    1
    27    11    12    2
    28    11    13   am
    29    13    14    1
    30    13    20    1
    31    14    15    1
    32    14    44    1
    33    14    45    1
    34    15    19    1
    35    15    16    2
    36    16    17    1
    37    16    46    1
    38    17    18    2
    39    17    47    1
    40    18    19    1
    41    18    48    1
    42    20    21    1
    43    20    49    1
    44    20    50    1
    45    21    22    1
    46    21    26    1
    47    21    23    1
    48    23    24    1
    49    23    51    1
    50    23    52    1
    51    24    25    1
    52    24    53    1
    53    24    54    1
    54    25    26    1
    55    25    55    1
    56    25    56    1
    57    27    28    2
    58    27    29   am
    59    29    57    1
@<TRIPOS>SUBSTRUCTURE
     1 ZINC000637608314        1 TEMP              0 ****  ****    0 ROOT


##########                                Name:    ZINC000944933040
##########                DOCK_Rotatable_Bonds:                   4
##########                         Heavy_Atoms:                  26
##########                    Molecular_Weight:             354.449
##########                DOCK_Rotatable_Bonds:                   4
##########                       Formal_Charge:           0.0100002
##########                     HBond_Acceptors:                   5
##########                        HBond_Donors:                   0
##########                         Heavy_Atoms:                  26
##########                          Grid_Score:          -32.014622
##########                     Grid_vdw_energy:          -30.660662
##########                      Grid_es_energy:           -1.353961
##########           Internal_energy_repulsive:            8.161175

@<TRIPOS>MOLECULE
ZINC000944933040
 52 57 1 0 0
SMALL
USER_CHARGES


@<TRIPOS>ATOM
      1 O1         -9.7942   -4.9994   57.5577 O.2     1  ZINC000944933040   -0.5200
      2 C2        -10.4468   -4.0296   57.2225 C.2     1  ZINC000944933040    0.6400
      3 C3        -10.7879   -3.8373   55.8450 C.1     1  ZINC000944933040   -0.2200
      4 C4        -11.0675   -3.6798   54.7158 C.1     1  ZINC000944933040   -0.0400
      5 C5        -11.4181   -3.4822   53.2999 C.3     1  ZINC000944933040   -0.0700
      6 C6        -12.3849   -2.3450   52.9636 C.3     1  ZINC000944933040   -0.1600
      7 C7        -10.9010   -2.2160   52.6140 C.3     1  ZINC000944933040   -0.1600
      8 N8        -10.8538   -3.1385   58.1481 N.am    1  ZINC000944933040   -0.6000
      9 C9        -11.6530   -1.9700   57.7564 C.3     1  ZINC000944933040    0.1100
     10 C10       -10.9426   -0.7011   58.2431 C.3     1  ZINC000944933040   -0.1200
     11 C11       -10.6381   -0.8388   59.7327 C.3     1  ZINC000944933040   -0.0900
     12 C12       -10.1276    0.4568   60.3784 C.3     1  ZINC000944933040    0.1200
     13 N13       -11.0152    0.1204   61.5095 N.am    1  ZINC000944933040   -0.6400
     14 C14       -11.0328    0.4320   62.8207 C.2     1  ZINC000944933040    0.5500
     15 O15       -11.9109   -0.0025   63.5354 O.2     1  ZINC000944933040   -0.5300
     16 C16        -9.9612    1.3202   63.3986 C.3     1  ZINC000944933040   -0.1300
     17 H17        -9.5175    1.9429   62.6218 H       1  ZINC000944933040    0.1100
     18 C18        -8.8750    0.4764   64.1131 C.3     1  ZINC000944933040   -0.1300
     19 C19        -8.9637    0.9761   65.5864 C.3     1  ZINC000944933040    0.0900
     20 H20        -8.5715    0.2900   66.3370 H       1  ZINC000944933040    0.1300
     21 O21       -10.3910    1.2891   65.6964 O.3     1  ZINC000944933040   -0.3600
     22 C22       -10.5346    2.1991   64.5504 C.3     1  ZINC000944933040    0.1200
     23 H23       -11.5337    2.6048   64.3916 H       1  ZINC000944933040    0.1400
     24 C24        -9.4271    3.2514   64.8575 C.3     1  ZINC000944933040   -0.2000
     25 H25        -9.1982    3.9957   64.0948 H       1  ZINC000944933040    0.1200
     26 C26        -9.1219    3.5376   66.3292 C.3     1  ZINC000944933040   -0.1300
     27 C27        -8.3225    2.3961   65.5791 C.3     1  ZINC000944933040   -0.2000
     28 H28        -7.2546    2.5070   65.3908 H       1  ZINC000944933040    0.1300
     29 C29       -11.8764   -0.6933   60.6284 C.3     1  ZINC000944933040    0.1100
     30 C30        -9.7870   -2.0627   60.0619 C.3     1  ZINC000944933040   -0.1100
     31 C31       -10.5098   -3.3255   59.5639 C.3     1  ZINC000944933040    0.1100
     32 H32       -11.4802   -4.3900   52.6998 H       1  ZINC000944933040    0.1400
     33 H33       -13.0834   -2.5047   52.1421 H       1  ZINC000944933040    0.1100
     34 H34       -12.7613   -1.7433   53.7908 H       1  ZINC000944933040    0.1000
     35 H35       -10.3011   -1.5293   53.2113 H       1  ZINC000944933040    0.1000
     36 H36       -10.6232   -2.2907   51.5627 H       1  ZINC000944933040    0.1100
     37 H37       -11.7502   -1.9409   56.6712 H       1  ZINC000944933040    0.0900
     38 H38       -12.6409   -2.0334   58.2124 H       1  ZINC000944933040    0.0800
     39 H39       -10.0116   -0.5704   57.6914 H       1  ZINC000944933040    0.0800
     40 H40       -11.5876    0.1624   58.0811 H       1  ZINC000944933040    0.0900
     41 H41        -9.0673    0.4345   60.6298 H       1  ZINC000944933040    0.0800
     42 H42       -10.4207    1.3599   59.8430 H       1  ZINC000944933040    0.0900
     43 H43        -9.1087   -0.5865   64.0512 H       1  ZINC000944933040    0.0800
     44 H44        -7.8896    0.6812   63.6947 H       1  ZINC000944933040    0.0900
     45 H45        -8.5715    4.4499   66.5593 H       1  ZINC000944933040    0.1000
     46 H46        -9.8728    3.2456   67.0634 H       1  ZINC000944933040    0.1000
     47 H47       -12.6891   -0.1320   60.1673 H       1  ZINC000944933040    0.0900
     48 H48       -12.2060   -1.6298   61.0783 H       1  ZINC000944933040    0.0800
     49 H49        -8.8185   -1.9762   59.5693 H       1  ZINC000944933040    0.0800
     50 H50        -9.6440   -2.1277   61.1404 H       1  ZINC000944933040    0.0800
     51 H51       -11.4165   -3.4819   60.1482 H       1  ZINC000944933040    0.0700
     52 H52        -9.8518   -4.1883   59.6681 H       1  ZINC000944933040    0.1000
@<TRIPOS>BOND
     1     1     2    2
     2     2     3    1
     3     2     8   am
     4     3     4    3
     5     4     5    1
     6     5     7    1
     7     5     6    1
     8     5    32    1
     9     6     7    1
    10     6    33    1
    11     6    34    1
    12     7    35    1
    13     7    36    1
    14     8    31    1
    15     8     9    1
    16     9    10    1
    17     9    37    1
    18     9    38    1
    19    10    11    1
    20    10    39    1
    21    10    40    1
    22    11    29    1
    23    11    12    1
    24    11    30    1
    25    12    13    1
    26    12    41    1
    27    12    42    1
    28    13    14   am
    29    13    29    1
    30    14    15    2
    31    14    16    1
    32    16    17    1
    33    16    22    1
    34    16    18    1
    35    18    19    1
    36    18    43    1
    37    18    44    1
    38    19    20    1
    39    19    27    1
    40    19    21    1
    41    21    22    1
    42    22    23    1
    43    22    24    1
    44    24    25    1
    45    24    27    1
    46    24    26    1
    47    26    27    1
    48    26    45    1
    49    26    46    1
    50    27    28    1
    51    29    47    1
    52    29    48    1
    53    30    31    1
    54    30    49    1
    55    30    50    1
    56    31    51    1
    57    31    52    1
@<TRIPOS>SUBSTRUCTURE
     1 ZINC000944933040        1 TEMP              0 ****  ****    0 ROOT


##########                                Name:    ZINC000279452407
##########                DOCK_Rotatable_Bonds:                   6
##########                         Heavy_Atoms:                  24
##########                    Molecular_Weight:              375.47
##########                DOCK_Rotatable_Bonds:                   6
##########                       Formal_Charge:          0.00999929
##########                     HBond_Acceptors:                  10
##########                        HBond_Donors:                   3
##########                         Heavy_Atoms:                  24
##########                          Grid_Score:          -32.001717
##########                     Grid_vdw_energy:          -28.268448
##########                      Grid_es_energy:           -3.733268
##########           Internal_energy_repulsive:           29.336178

@<TRIPOS>MOLECULE
ZINC000279452407
 45 47 1 0 0
SMALL
USER_CHARGES


@<TRIPOS>ATOM
      1 C1        -12.8903   -1.7457   59.5137 C.3     1  ZINC000279452407   -0.1600
      2 C2        -12.3366   -2.3674   58.2301 C.3     1  ZINC000279452407    0.0600
      3 H3        -12.5041   -1.6940   57.3895 H       1  ZINC000279452407    0.0700
      4 O4        -12.9785   -3.6309   57.9811 O.3     1  ZINC000279452407   -0.3700
      5 C5        -11.9918   -4.4933   57.3738 C.3     1  ZINC000279452407    0.0500
      6 C6        -10.6925   -4.1653   58.1547 C.3     1  ZINC000279452407   -0.1400
      7 C7        -10.8340   -2.6426   58.3882 C.3     1  ZINC000279452407    0.0700
      8 C8        -10.3750   -2.2875   59.8001 C.3     1  ZINC000279452407    0.1100
      9 N9        -10.3532   -0.8206   59.9280 N.am    1  ZINC000279452407   -0.6300
     10 C10       -10.9431   -0.2050   60.9719 C.2     1  ZINC000279452407    0.7200
     11 O11       -11.5050   -0.8621   61.8267 O.2     1  ZINC000279452407   -0.5800
     12 N12       -10.9101    1.1389   61.0682 N.am    1  ZINC000279452407   -0.7500
     13 C13       -11.5513    1.8078   62.2028 C.3     1  ZINC000279452407    0.2000
     14 C14       -10.7969    1.4864   63.4672 C.2     1  ZINC000279452407   -0.1700
     15 C15       -11.2631    1.6568   64.7053 C.2     1  ZINC000279452407   -0.1400
     16 C16       -10.3886    1.2900   65.7135 C.2     1  ZINC000279452407    0.0100
     17 C17        -9.2121    0.8217   65.2943 C.2     1  ZINC000279452407   -0.7900
     18 S18        -7.9035    0.2784   66.3418 S.o2    1  ZINC000279452407    2.7300
     19 N19        -8.2019    0.8847   67.8536 N.am    1  ZINC000279452407   -1.2500
     20 O20        -8.0306   -1.1333   66.4433 O.2     1  ZINC000279452407   -0.9600
     21 O21        -6.7245    0.9211   65.8772 O.2     1  ZINC000279452407   -0.9500
     22 S22        -9.1699    0.8219   63.5360 S.3     1  ZINC000279452407    0.2500
     23 C23        -9.6668   -0.0477   58.8805 C.3     1  ZINC000279452407    0.0700
     24 C24       -10.1960   -0.5026   57.5156 C.3     1  ZINC000279452407    0.0400
     25 O25       -10.0827   -1.9253   57.4167 O.3     1  ZINC000279452407   -0.3600
     26 H26       -12.4667   -0.7504   59.6475 H       1  ZINC000279452407    0.0700
     27 H27       -13.9755   -1.6722   59.4432 H       1  ZINC000279452407    0.0600
     28 H28       -12.6231   -2.3717   60.3652 H       1  ZINC000279452407    0.0800
     29 H29       -12.2646   -5.5404   57.5054 H       1  ZINC000279452407    0.1000
     30 H30       -11.8741   -4.2564   56.3164 H       1  ZINC000279452407    0.0700
     31 H31       -10.6604   -4.7047   59.1014 H       1  ZINC000279452407    0.1000
     32 H32        -9.8107   -4.3851   57.5529 H       1  ZINC000279452407    0.1000
     33 H33       -11.0690   -2.7083   60.5277 H       1  ZINC000279452407    0.1200
     34 H34        -9.3746   -2.6850   59.9710 H       1  ZINC000279452407    0.0800
     35 H35       -10.4618    1.6631   60.3861 H       1  ZINC000279452407    0.4000
     36 H36       -11.5451    2.8856   62.0401 H       1  ZINC000279452407    0.1000
     37 H37       -12.5803    1.4603   62.2954 H       1  ZINC000279452407    0.0900
     38 H38       -12.2482    2.0514   64.9058 H       1  ZINC000279452407    0.1600
     39 H39       -10.6396    1.3768   66.7604 H       1  ZINC000279452407    0.1600
     40 H40        -9.0189    0.6466   68.3191 H       1  ZINC000279452407    0.4200
     41 H41        -7.5596    1.4780   68.2737 H       1  ZINC000279452407    0.4200
     42 H42        -9.8696    1.0145   59.0166 H       1  ZINC000279452407    0.0900
     43 H43        -8.5933   -0.2287   58.9359 H       1  ZINC000279452407    0.0900
     44 H44       -11.2421   -0.2129   57.4159 H       1  ZINC000279452407    0.0600
     45 H45        -9.6109   -0.0347   56.7239 H       1  ZINC000279452407    0.1100
@<TRIPOS>BOND
     1     1     2    1
     2     1    26    1
     3     1    27    1
     4     1    28    1
     5     2     3    1
     6     2     7    1
     7     2     4    1
     8     4     5    1
     9     5     6    1
    10     5    29    1
    11     5    30    1
    12     6     7    1
    13     6    31    1
    14     6    32    1
    15     7    25    1
    16     7     8    1
    17     8     9    1
    18     8    33    1
    19     8    34    1
    20     9    10   am
    21     9    23    1
    22    10    11    2
    23    10    12   am
    24    12    13    1
    25    12    35    1
    26    13    14    1
    27    13    36    1
    28    13    37    1
    29    14    22    1
    30    14    15    2
    31    15    16    1
    32    15    38    1
    33    16    17    2
    34    16    39    1
    35    17    18    1
    36    17    22    1
    37    18    19   am
    38    18    20    2
    39    18    21    2
    40    19    40    1
    41    19    41    1
    42    23    24    1
    43    23    42    1
    44    23    43    1
    45    24    25    1
    46    24    44    1
    47    24    45    1
@<TRIPOS>SUBSTRUCTURE
     1 ZINC000279452407        1 TEMP              0 ****  ****    0 ROOT


##########                                Name:    ZINC001199210165
##########                DOCK_Rotatable_Bonds:                   5
##########                         Heavy_Atoms:                  23
##########                    Molecular_Weight:             375.225
##########                DOCK_Rotatable_Bonds:                   5
##########                       Formal_Charge:         -0.00999999
##########                     HBond_Acceptors:                   6
##########                        HBond_Donors:                   2
##########                         Heavy_Atoms:                  23
##########                          Grid_Score:          -31.947834
##########                     Grid_vdw_energy:          -30.248350
##########                      Grid_es_energy:           -1.699484
##########           Internal_energy_repulsive:            6.130701

@<TRIPOS>MOLECULE
ZINC001199210165
 38 40 1 0 0
SMALL
USER_CHARGES


@<TRIPOS>ATOM
      1 C1        -12.8278   -4.2327   54.5172 C.3     1  ZINC001199210165   -0.1700
      2 C2        -11.4228   -3.7001   54.2286 C.3     1  ZINC001199210165    0.0800
      3 C3        -11.3649   -3.1634   52.7970 C.3     1  ZINC001199210165   -0.1500
      4 O4        -11.1149   -2.6474   55.1447 O.3     1  ZINC001199210165   -0.3000
      5 C5        -10.6874   -3.0113   56.3800 C.ar    1  ZINC001199210165    0.3300
      6 C6        -10.5134   -2.0423   57.3590 C.ar    1  ZINC001199210165   -0.1300
      7 C7        -10.0729   -2.4324   58.6253 C.ar    1  ZINC001199210165   -0.0600
      8 C8         -9.8733   -1.4347   59.7018 C.2     1  ZINC001199210165    0.5700
      9 O9         -9.4040   -0.3446   59.4406 O.2     1  ZINC001199210165   -0.4900
     10 N10       -10.2121   -1.7361   60.9710 N.am    1  ZINC001199210165   -0.6600
     11 C11       -10.0237   -0.7944   61.9872 C.ar    1  ZINC001199210165    0.2000
     12 C12       -10.9660    0.2176   62.1768 C.ar    1  ZINC001199210165   -0.1500
     13 C13       -10.7991    1.1442   63.1628 C.ar    1  ZINC001199210165   -0.0200
     14 C14        -9.6747    1.0833   63.9938 C.ar    1  ZINC001199210165   -0.1700
     15 C15        -9.1990    1.8912   65.1132 C.2     1  ZINC001199210165    0.0900
     16 Br16      -10.0608    3.4115   65.8356 Br      1  ZINC001199210165    0.0600
     17 N17        -8.0751    1.3773   65.5257 N.2     1  ZINC001199210165   -0.2100
     18 N18        -7.7464    0.2583   64.7538 N.pl3   1  ZINC001199210165   -0.4900
     19 C19        -8.7196    0.0645   63.8080 C.ar    1  ZINC001199210165    0.1500
     20 C20        -8.9081   -0.8762   62.8002 C.ar    1  ZINC001199210165   -0.1700
     21 C21        -9.8256   -3.7913   58.8501 C.ar    1  ZINC001199210165   -0.1900
     22 C22       -10.0241   -4.6896   57.8213 C.ar    1  ZINC001199210165    0.1400
     23 N23       -10.4463   -4.2851   56.6391 N.ar    1  ZINC001199210165   -0.5200
     24 H24       -13.5526   -3.4268   54.4017 H       1  ZINC001199210165    0.0600
     25 H25       -13.0626   -5.0356   53.8185 H       1  ZINC001199210165    0.0700
     26 H26       -12.8691   -4.6149   55.5371 H       1  ZINC001199210165    0.0600
     27 H27       -10.6980   -4.5058   54.3441 H       1  ZINC001199210165    0.0900
     28 H28       -12.0898   -2.3576   52.6814 H       1  ZINC001199210165    0.0700
     29 H29       -10.3639   -2.7840   52.5914 H       1  ZINC001199210165    0.0600
     30 H30       -11.5998   -3.9663   52.0982 H       1  ZINC001199210165    0.0800
     31 H31       -10.7153   -1.0032   57.1444 H       1  ZINC001199210165    0.1600
     32 H32       -10.5867   -2.6062   61.1795 H       1  ZINC001199210165    0.4100
     33 H33       -11.8345    0.2673   61.5369 H       1  ZINC001199210165    0.1500
     34 H34       -11.5331    1.9241   63.3022 H       1  ZINC001199210165    0.1400
     35 H35        -6.9564   -0.2926   64.8694 H       1  ZINC001199210165    0.4500
     36 H36        -8.1850   -1.6646   62.6518 H       1  ZINC001199210165    0.1400
     37 H37        -9.4835   -4.1326   59.8160 H       1  ZINC001199210165    0.1400
     38 H38        -9.8347   -5.7397   57.9879 H       1  ZINC001199210165    0.1700
@<TRIPOS>BOND
     1     1     2    1
     2     1    24    1
     3     1    25    1
     4     1    26    1
     5     2     3    1
     6     2     4    1
     7     2    27    1
     8     3    28    1
     9     3    29    1
    10     3    30    1
    11     4     5    1
    12     5    23   ar
    13     5     6   ar
    14     6     7   ar
    15     6    31    1
    16     7     8    1
    17     7    21   ar
    18     8     9    2
    19     8    10   am
    20    10    11    1
    21    10    32    1
    22    11    20   ar
    23    11    12   ar
    24    12    13   ar
    25    12    33    1
    26    13    14   ar
    27    13    34    1
    28    14    19   ar
    29    14    15    1
    30    15    16    1
    31    15    17    2
    32    17    18    1
    33    18    19    1
    34    18    35    1
    35    19    20   ar
    36    20    36    1
    37    21    22   ar
    38    21    37    1
    39    22    23   ar
    40    22    38    1
@<TRIPOS>SUBSTRUCTURE
     1 ZINC001199210165        1 TEMP              0 ****  ****    0 ROOT


##########                                Name:    ZINC000537799672
##########                DOCK_Rotatable_Bonds:                   9
##########                         Heavy_Atoms:                  29
##########                    Molecular_Weight:             401.478
##########                DOCK_Rotatable_Bonds:                   9
##########                       Formal_Charge:        -4.47035e-07
##########                     HBond_Acceptors:                   6
##########                        HBond_Donors:                   1
##########                         Heavy_Atoms:                  29
##########                          Grid_Score:          -31.913010
##########                     Grid_vdw_energy:          -30.288393
##########                      Grid_es_energy:           -1.624616
##########           Internal_energy_repulsive:           14.441444

@<TRIPOS>MOLECULE
ZINC000537799672
 57 59 1 0 0
SMALL
USER_CHARGES


@<TRIPOS>ATOM
      1 C1        -14.0117    0.5092   63.2479 C.3     1  ZINC000537799672    0.0300
      2 O2        -12.6803    0.1234   62.9005 O.3     1  ZINC000537799672   -0.3800
      3 C3        -11.7401    1.1993   62.9180 C.3     1  ZINC000537799672    0.1200
      4 H4        -12.2682    2.1410   63.0675 H       1  ZINC000537799672    0.0900
      5 C5        -10.7581    0.9901   64.0419 C.ar    1  ZINC000537799672   -0.1300
      6 C6        -10.9603    1.6110   65.2604 C.ar    1  ZINC000537799672   -0.0600
      7 C7        -10.0605    1.4199   66.2917 C.ar    1  ZINC000537799672   -0.1500
      8 C8         -8.9562    0.6060   66.1043 C.ar    1  ZINC000537799672    0.1000
      9 F9         -8.0761    0.4181   67.1119 F       1  ZINC000537799672   -0.1400
     10 C10        -8.7549   -0.0158   64.8836 C.ar    1  ZINC000537799672   -0.1500
     11 C11        -9.6587    0.1729   63.8553 C.ar    1  ZINC000537799672   -0.0800
     12 C12       -10.9888    1.2419   61.5858 C.3     1  ZINC000537799672    0.1600
     13 H13        -9.9474    1.5093   61.7644 H       1  ZINC000537799672    0.1000
     14 C14       -11.6334    2.2844   60.6700 C.3     1  ZINC000537799672   -0.1600
     15 N15       -11.0522   -0.0750   60.9470 N.am    1  ZINC000537799672   -0.7100
     16 C16       -10.1723   -0.3972   59.9784 C.2     1  ZINC000537799672    0.5600
     17 O17        -9.3252    0.4043   59.6358 O.2     1  ZINC000537799672   -0.5400
     18 C18       -10.2373   -1.7256   59.3326 C.ar    1  ZINC000537799672   -0.1400
     19 C19        -9.1826   -2.6279   59.4780 C.ar    1  ZINC000537799672   -0.0800
     20 C20        -9.2497   -3.8661   58.8731 C.ar    1  ZINC000537799672   -0.1300
     21 C21       -10.3592   -4.2139   58.1234 C.ar    1  ZINC000537799672   -0.0900
     22 C22       -11.4083   -3.3238   57.9750 C.ar    1  ZINC000537799672   -0.1100
     23 C23       -11.3564   -2.0849   58.5796 C.ar    1  ZINC000537799672   -0.0300
     24 C24       -12.5000   -1.1170   58.4173 C.3     1  ZINC000537799672    0.1100
     25 O25       -13.5724   -1.4974   59.2818 O.3     1  ZINC000537799672   -0.3800
     26 C26       -14.8582   -1.4721   58.6587 C.3     1  ZINC000537799672    0.0900
     27 C27       -15.7818   -2.4808   59.3484 C.3     1  ZINC000537799672   -0.1800
     28 C28       -17.1779   -2.3907   58.7268 C.3     1  ZINC000537799672    0.0600
     29 O29       -17.6693   -1.0548   58.8541 O.3     1  ZINC000537799672   -0.3800
     30 C30       -16.8714   -0.0737   58.1885 C.3     1  ZINC000537799672    0.0600
     31 C31       -15.4629   -0.0708   58.7885 C.3     1  ZINC000537799672   -0.1500
     32 H32       -14.3401    1.3137   62.5900 H       1  ZINC000537799672    0.0500
     33 H33       -14.6784   -0.3460   63.1372 H       1  ZINC000537799672    0.0900
     34 H34       -14.0319    0.8542   64.2817 H       1  ZINC000537799672    0.0400
     35 H35       -11.8218    2.2458   65.4062 H       1  ZINC000537799672    0.1300
     36 H36       -10.2184    1.9056   67.2433 H       1  ZINC000537799672    0.1400
     37 H37        -7.8937   -0.6507   64.7363 H       1  ZINC000537799672    0.1400
     38 H38        -9.5021   -0.3122   62.9032 H       1  ZINC000537799672    0.1300
     39 H39       -11.6712    3.2452   61.1834 H       1  ZINC000537799672    0.0700
     40 H40       -11.0430    2.3823   59.7589 H       1  ZINC000537799672    0.0600
     41 H41       -12.6450    1.9684   60.4153 H       1  ZINC000537799672    0.0700
     42 H42       -11.7275   -0.7151   61.2213 H       1  ZINC000537799672    0.4000
     43 H43        -8.3155   -2.3573   60.0623 H       1  ZINC000537799672    0.1300
     44 H44        -8.4342   -4.5654   58.9848 H       1  ZINC000537799672    0.1300
     45 H45       -10.4067   -5.1843   57.6518 H       1  ZINC000537799672    0.1300
     46 H46       -12.2714   -3.6012   57.3882 H       1  ZINC000537799672    0.1400
     47 H47       -12.1648   -0.1122   58.6745 H       1  ZINC000537799672    0.0800
     48 H48       -12.8443   -1.1316   57.3832 H       1  ZINC000537799672    0.0800
     49 H49       -14.7575   -1.7295   57.6043 H       1  ZINC000537799672    0.0600
     50 H50       -15.3871   -3.4878   59.2132 H       1  ZINC000537799672    0.0800
     51 H51       -15.8413   -2.2517   60.4124 H       1  ZINC000537799672    0.0800
     52 H52       -17.1240   -2.6592   57.6718 H       1  ZINC000537799672    0.0500
     53 H53       -17.8504   -3.0761   59.2426 H       1  ZINC000537799672    0.1000
     54 H54       -16.8134   -0.3119   57.1264 H       1  ZINC000537799672    0.0500
     55 H55       -17.3231    0.9100   58.3165 H       1  ZINC000537799672    0.1000
     56 H56       -15.5161    0.2069   59.8412 H       1  ZINC000537799672    0.0800
     57 H57       -14.8402    0.6458   58.2528 H       1  ZINC000537799672    0.0800
@<TRIPOS>BOND
     1     1     2    1
     2     1    32    1
     3     1    33    1
     4     1    34    1
     5     2     3    1
     6     3     4    1
     7     3     5    1
     8     3    12    1
     9     5    11   ar
    10     5     6   ar
    11     6     7   ar
    12     6    35    1
    13     7     8   ar
    14     7    36    1
    15     8     9    1
    16     8    10   ar
    17    10    11   ar
    18    10    37    1
    19    11    38    1
    20    12    13    1
    21    12    14    1
    22    12    15    1
    23    14    39    1
    24    14    40    1
    25    14    41    1
    26    15    16   am
    27    15    42    1
    28    16    17    2
    29    16    18    1
    30    18    23   ar
    31    18    19   ar
    32    19    20   ar
    33    19    43    1
    34    20    21   ar
    35    20    44    1
    36    21    22   ar
    37    21    45    1
    38    22    23   ar
    39    22    46    1
    40    23    24    1
    41    24    25    1
    42    24    47    1
    43    24    48    1
    44    25    26    1
    45    26    31    1
    46    26    27    1
    47    26    49    1
    48    27    28    1
    49    27    50    1
    50    27    51    1
    51    28    29    1
    52    28    52    1
    53    28    53    1
    54    29    30    1
    55    30    31    1
    56    30    54    1
    57    30    55    1
    58    31    56    1
    59    31    57    1
@<TRIPOS>SUBSTRUCTURE
     1 ZINC000537799672        1 TEMP              0 ****  ****    0 ROOT


##########                                Name:    ZINC001060733018
##########                DOCK_Rotatable_Bonds:                   7
##########                         Heavy_Atoms:                  24
##########                    Molecular_Weight:             342.429
##########                DOCK_Rotatable_Bonds:                   7
##########                       Formal_Charge:           0.0200001
##########                     HBond_Acceptors:                   6
##########                        HBond_Donors:                   2
##########                         Heavy_Atoms:                  24
##########                          Grid_Score:          -31.906454
##########                     Grid_vdw_energy:          -30.843143
##########                      Grid_es_energy:           -1.063310
##########           Internal_energy_repulsive:            5.433049

@<TRIPOS>MOLECULE
ZINC001060733018
 52 54 1 0 0
SMALL
USER_CHARGES


@<TRIPOS>ATOM
      1 O1        -13.4981   -1.0689   47.8521 O.2     1  ZINC001060733018   -0.5000
      2 C2        -13.5922   -0.0249   48.4621 C.2     1  ZINC001060733018    0.4700
      3 N3        -13.5323   -0.0235   49.8086 N.am    1  ZINC001060733018   -0.7100
      4 C4        -13.3577   -1.2834   50.5354 C.3     1  ZINC001060733018    0.1200
      5 C5        -12.5640   -1.0266   51.8179 C.3     1  ZINC001060733018   -0.1000
      6 H6        -11.8129   -0.2587   51.6327 H       1  ZINC001060733018    0.0800
      7 C7        -13.5146   -0.5551   52.9202 C.3     1  ZINC001060733018   -0.1100
      8 C8        -12.7207   -0.2982   54.2027 C.3     1  ZINC001060733018   -0.1300
      9 C9        -12.0307   -1.5909   54.6429 C.3     1  ZINC001060733018    0.1400
     10 H10       -12.7818   -2.3588   54.8281 H       1  ZINC001060733018    0.0900
     11 N11       -11.2707   -1.3450   55.8710 N.am    1  ZINC001060733018   -0.7300
     12 C12       -11.1886   -2.3025   56.8159 C.2     1  ZINC001060733018    0.5200
     13 O13       -11.7428   -3.3683   56.6489 O.2     1  ZINC001060733018   -0.5400
     14 C14       -10.4083   -2.0488   58.0799 C.3     1  ZINC001060733018   -0.1000
     15 H15        -9.6292   -1.3120   57.8843 H       1  ZINC001060733018    0.1000
     16 C16        -9.7682   -3.3542   58.5547 C.3     1  ZINC001060733018   -0.1100
     17 C17        -8.9138   -3.0914   59.7957 C.3     1  ZINC001060733018   -0.1200
     18 C18        -9.8087   -2.5952   60.9355 C.3     1  ZINC001060733018   -0.0800
     19 C19       -10.5629   -1.3476   60.4662 C.3     1  ZINC001060733018   -0.1300
     20 C20        -9.9197    0.0131   60.7328 C.3     1  ZINC001060733018   -0.1700
     21 C21       -11.1467   -0.4249   61.5354 C.3     1  ZINC001060733018   -0.1700
     22 C22       -11.3513   -1.5190   59.1645 C.3     1  ZINC001060733018   -0.0600
     23 C23       -11.0802   -2.0625   53.5407 C.3     1  ZINC001060733018   -0.1200
     24 C24       -11.8740   -2.3193   52.2581 C.3     1  ZINC001060733018   -0.1100
     25 C25       -13.7700    1.2713   47.7145 C.3     1  ZINC001060733018    0.2600
     26 F26       -15.1334    1.5070   47.5075 F       1  ZINC001060733018   -0.1700
     27 F27       -13.2239    2.3199   48.4625 F       1  ZINC001060733018   -0.1900
     28 H28       -13.6048    0.8118   50.2964 H       1  ZINC001060733018    0.4100
     29 H29       -14.3347   -1.6950   50.7890 H       1  ZINC001060733018    0.0800
     30 H30       -12.8164   -1.9923   49.9089 H       1  ZINC001060733018    0.0800
     31 H31       -14.0061    0.3659   52.6067 H       1  ZINC001060733018    0.0700
     32 H32       -14.2656   -1.3230   53.1054 H       1  ZINC001060733018    0.0700
     33 H33       -13.3979    0.0377   54.9880 H       1  ZINC001060733018    0.0700
     34 H34       -11.9697    0.4697   54.0175 H       1  ZINC001060733018    0.0600
     35 H35       -10.8264   -0.4930   56.0040 H       1  ZINC001060733018    0.4000
     36 H36       -10.5502   -4.0732   58.7988 H       1  ZINC001060733018    0.0700
     37 H37        -9.1389   -3.7584   57.7619 H       1  ZINC001060733018    0.0700
     38 H38        -8.4186   -4.0142   60.0980 H       1  ZINC001060733018    0.0700
     39 H39        -8.1636   -2.3346   59.5668 H       1  ZINC001060733018    0.0700
     40 H40       -10.5226   -3.3736   61.2046 H       1  ZINC001060733018    0.0700
     41 H41        -9.1941   -2.3463   61.8005 H       1  ZINC001060733018    0.0700
     42 H42        -8.9589    0.0236   61.2475 H       1  ZINC001060733018    0.0900
     43 H43       -10.0602    0.7919   59.9831 H       1  ZINC001060733018    0.0900
     44 H44       -12.0945    0.0657   61.3138 H       1  ZINC001060733018    0.0900
     45 H45       -10.9936   -0.7028   62.5782 H       1  ZINC001060733018    0.0900
     46 H46       -11.7595   -0.5567   58.8554 H       1  ZINC001060733018    0.0700
     47 H47       -12.1637   -2.2289   59.3205 H       1  ZINC001060733018    0.0800
     48 H48       -10.5885   -2.9834   53.8543 H       1  ZINC001060733018    0.0700
     49 H49       -10.3291   -1.2945   53.3555 H       1  ZINC001060733018    0.0700
     50 H50       -12.6249   -3.0873   52.4433 H       1  ZINC001060733018    0.0700
     51 H51       -11.1968   -2.6553   51.4728 H       1  ZINC001060733018    0.0700
     52 H52       -13.2620    1.2084   46.7522 H       1  ZINC001060733018    0.1400
@<TRIPOS>BOND
     1     1     2    2
     2     2     3   am
     3     2    25    1
     4     3     4    1
     5     3    28    1
     6     4     5    1
     7     4    29    1
     8     4    30    1
     9     5     6    1
    10     5    24    1
    11     5     7    1
    12     7     8    1
    13     7    31    1
    14     7    32    1
    15     8     9    1
    16     8    33    1
    17     8    34    1
    18     9    10    1
    19     9    11    1
    20     9    23    1
    21    11    12   am
    22    11    35    1
    23    12    13    2
    24    12    14    1
    25    14    15    1
    26    14    22    1
    27    14    16    1
    28    16    17    1
    29    16    36    1
    30    16    37    1
    31    17    18    1
    32    17    38    1
    33    17    39    1
    34    18    19    1
    35    18    40    1
    36    18    41    1
    37    19    21    1
    38    19    20    1
    39    19    22    1
    40    20    21    1
    41    20    42    1
    42    20    43    1
    43    21    44    1
    44    21    45    1
    45    22    46    1
    46    22    47    1
    47    23    24    1
    48    23    48    1
    49    23    49    1
    50    24    50    1
    51    24    51    1
    52    25    26    1
    53    25    27    1
    54    25    52    1
@<TRIPOS>SUBSTRUCTURE
     1 ZINC001060733018        1 TEMP              0 ****  ****    0 ROOT


##########                                Name:    ZINC000550011575
##########                DOCK_Rotatable_Bonds:                   6
##########                         Heavy_Atoms:                  28
##########                    Molecular_Weight:             423.935
##########                DOCK_Rotatable_Bonds:                   6
##########                       Formal_Charge:          -0.0100002
##########                     HBond_Acceptors:                   7
##########                        HBond_Donors:                   0
##########                         Heavy_Atoms:                  28
##########                          Grid_Score:          -31.892536
##########                     Grid_vdw_energy:          -30.256535
##########                      Grid_es_energy:           -1.636002
##########           Internal_energy_repulsive:           39.597462

@<TRIPOS>MOLECULE
ZINC000550011575
 51 53 1 0 0
SMALL
USER_CHARGES


@<TRIPOS>ATOM
      1 C1        -15.5554   -3.2552   59.0223 C.3     1  ZINC000550011575   -0.1400
      2 C2        -14.1474   -2.7326   58.7299 C.3     1  ZINC000550011575   -0.6100
      3 H3        -13.4660   -3.5743   58.6058 H       1  ZINC000550011575    0.1500
      4 C4        -14.1683   -1.9126   57.4657 C.2     1  ZINC000550011575    0.5400
      5 O5        -14.1997   -0.7019   57.5287 O.2     1  ZINC000550011575   -0.5100
      6 N6        -14.1523   -2.5248   56.2651 N.am    1  ZINC000550011575   -0.6000
      7 C7        -14.1162   -3.9874   56.1890 C.3     1  ZINC000550011575    0.0600
      8 C8        -14.1708   -1.7276   55.0361 C.3     1  ZINC000550011575    0.1500
      9 C9        -12.7597   -1.5234   54.5483 C.ar    1  ZINC000550011575   -0.1500
     10 C10       -12.0108   -0.4594   55.0207 C.ar    1  ZINC000550011575    0.1400
     11 F11       -12.5447    0.3967   55.9192 F       1  ZINC000550011575   -0.1100
     12 C12       -10.7140   -0.2732   54.5720 C.ar    1  ZINC000550011575   -0.1500
     13 C13       -10.1682   -1.1493   53.6533 C.ar    1  ZINC000550011575   -0.0700
     14 C14       -10.9161   -2.2121   53.1816 C.ar    1  ZINC000550011575   -0.1300
     15 C15       -12.2099   -2.4025   53.6326 C.ar    1  ZINC000550011575    0.0000
     16 Cl16      -13.1480   -3.7377   53.0401 Cl      1  ZINC000550011575   -0.0500
     17 S17       -13.5868   -1.6995   60.1116 S.o2    1  ZINC000550011575    2.4500
     18 O18       -14.3734   -0.5164   60.1405 O.2     1  ZINC000550011575   -0.9200
     19 O19       -13.5062   -2.5077   61.2776 O.2     1  ZINC000550011575   -0.9100
     20 C20       -11.9041   -1.2624   59.5940 C.3     1  ZINC000550011575   -0.5300
     21 H21       -11.9498   -0.4385   58.8817 H       1  ZINC000550011575    0.1500
     22 C22       -11.2531   -2.4710   58.9246 C.3     1  ZINC000550011575   -0.1100
     23 C23        -9.7709   -2.1556   58.6917 C.3     1  ZINC000550011575   -0.1100
     24 C24        -9.0668   -2.1204   60.0467 C.3     1  ZINC000550011575   -0.0900
     25 C25        -9.8038   -1.2195   61.0029 C.ar    1  ZINC000550011575   -0.0600
     26 C26        -9.1216   -0.7739   62.1273 C.ar    1  ZINC000550011575   -0.1200
     27 C27        -9.7431    0.0491   63.0441 C.ar    1  ZINC000550011575   -0.1100
     28 C28       -11.0557    0.4327   62.8429 C.ar    1  ZINC000550011575   -0.1100
     29 C29       -11.7344   -0.0071   61.7250 C.ar    1  ZINC000550011575   -0.1500
     30 C30       -11.1093   -0.8332   60.7994 C.ar    1  ZINC000550011575   -0.0800
     31 H31       -15.5128   -3.9776   59.8374 H       1  ZINC000550011575    0.0900
     32 H32       -16.1996   -2.4235   59.3073 H       1  ZINC000550011575    0.0900
     33 H33       -15.9567   -3.7367   58.1306 H       1  ZINC000550011575    0.0800
     34 H34       -15.1346   -4.3754   56.1692 H       1  ZINC000550011575    0.0700
     35 H35       -13.5940   -4.2911   55.2818 H       1  ZINC000550011575    0.0800
     36 H36       -13.5932   -4.3836   57.0593 H       1  ZINC000550011575    0.0700
     37 H37       -14.7471   -2.2502   54.2727 H       1  ZINC000550011575    0.1000
     38 H38       -14.6292   -0.7594   55.2379 H       1  ZINC000550011575    0.1100
     39 H39       -10.1293    0.5569   54.9399 H       1  ZINC000550011575    0.1500
     40 H40        -9.1569   -1.0036   53.3034 H       1  ZINC000550011575    0.1500
     41 H41       -10.4886   -2.8960   52.4633 H       1  ZINC000550011575    0.1400
     42 H42       -11.3453   -3.3431   59.5722 H       1  ZINC000550011575    0.0800
     43 H43       -11.7407   -2.6689   57.9701 H       1  ZINC000550011575    0.0900
     44 H44        -9.3248   -2.9289   58.0663 H       1  ZINC000550011575    0.0800
     45 H45        -9.6744   -1.1862   58.2026 H       1  ZINC000550011575    0.0700
     46 H46        -9.0299   -3.1287   60.4589 H       1  ZINC000550011575    0.0800
     47 H47        -8.0506   -1.7494   59.9141 H       1  ZINC000550011575    0.0800
     48 H48        -8.0964   -1.0740   62.2856 H       1  ZINC000550011575    0.1300
     49 H49        -9.2059    0.3919   63.9160 H       1  ZINC000550011575    0.1300
     50 H50       -11.5484    1.0744   63.5584 H       1  ZINC000550011575    0.1300
     51 H51       -12.7601    0.2926   61.5688 H       1  ZINC000550011575    0.1700
@<TRIPOS>BOND
     1     1     2    1
     2     1    31    1
     3     1    32    1
     4     1    33    1
     5     2     3    1
     6     2     4    1
     7     2    17    1
     8     4     5    2
     9     4     6   am
    10     6     7    1
    11     6     8    1
    12     7    34    1
    13     7    35    1
    14     7    36    1
    15     8     9    1
    16     8    37    1
    17     8    38    1
    18     9    15   ar
    19     9    10   ar
    20    10    11    1
    21    10    12   ar
    22    12    13   ar
    23    12    39    1
    24    13    14   ar
    25    13    40    1
    26    14    15   ar
    27    14    41    1
    28    15    16    1
    29    17    18    2
    30    17    19    2
    31    17    20    1
    32    20    21    1
    33    20    30    1
    34    20    22    1
    35    22    23    1
    36    22    42    1
    37    22    43    1
    38    23    24    1
    39    23    44    1
    40    23    45    1
    41    24    25    1
    42    24    46    1
    43    24    47    1
    44    25    30   ar
    45    25    26   ar
    46    26    27   ar
    47    26    48    1
    48    27    28   ar
    49    27    49    1
    50    28    29   ar
    51    28    50    1
    52    29    30   ar
    53    29    51    1
@<TRIPOS>SUBSTRUCTURE
     1 ZINC000550011575        1 TEMP              0 ****  ****    0 ROOT


##########                                Name:    ZINC000286156371
##########                DOCK_Rotatable_Bonds:                   7
##########                         Heavy_Atoms:                  25
##########                    Molecular_Weight:             350.418
##########                DOCK_Rotatable_Bonds:                   7
##########                       Formal_Charge:          0.00999908
##########                     HBond_Acceptors:                   8
##########                        HBond_Donors:                   2
##########                         Heavy_Atoms:                  25
##########                          Grid_Score:          -31.889849
##########                     Grid_vdw_energy:          -29.108231
##########                      Grid_es_energy:           -2.781619
##########           Internal_energy_repulsive:           34.835499

@<TRIPOS>MOLECULE
ZINC000286156371
 51 53 1 0 0
SMALL
USER_CHARGES


@<TRIPOS>ATOM
      1 C1         -9.4983    2.5431   57.4245 C.3     1  <0>        -0.1800
      2 C2         -9.1648    1.5007   56.3553 C.3     1  <0>         0.1400
      3 C3         -9.8190    1.9008   55.0313 C.3     1  <0>        -0.1800
      4 C4         -7.6477    1.4253   56.1723 C.3     1  <0>        -0.1400
      5 O5         -9.6673    0.2034   56.7708 O.3     1  <0>        -0.3600
      6 C6         -9.2419   -0.2649   57.9593 C.2     1  <0>         0.6800
      7 O7         -8.3634    0.3186   58.5630 O.2     1  <0>        -0.5600
      8 N8         -9.7903   -1.3807   58.4795 N.am    1  <0>        -0.5800
      9 C9        -10.8585   -2.1837   57.8568 C.3     1  <0>         0.0700
     10 C10       -10.6977   -3.5986   58.4667 C.3     1  <0>         0.0900
     11 H11       -11.6404   -4.1450   58.4397 H       1  <0>         0.0900
     12 O12        -9.6660   -4.3291   57.8005 O.3     1  <0>        -0.5500
     13 C13       -10.2902   -3.2643   59.9260 C.3     1  <0>        -0.1200
     14 C14        -9.4179   -2.0024   59.7586 C.3     1  <0>         0.1500
     15 H15        -8.3637   -2.2792   59.7490 H       1  <0>         0.1100
     16 C16        -9.6850   -1.0413   60.8882 C.2     1  <0>         0.5200
     17 O17       -10.5675   -0.2156   60.7861 O.2     1  <0>        -0.4900
     18 N18        -8.9431   -1.0993   62.0120 N.am    1  <0>        -0.6300
     19 C19        -9.1926   -0.2065   63.0633 C.2     1  <0>         0.3000
     20 N20       -10.3743    0.1090   63.5433 N.2     1  <0>        -0.3200
     21 N21       -10.1906    1.0255   64.5810 N.pl3   1  <0>        -0.3600
     22 C22       -11.2245    1.6535   65.4094 C.3     1  <0>         0.1400
     23 C23       -10.5668    2.2285   66.6682 C.3     1  <0>        -0.1400
     24 C24        -9.3660    3.0918   66.2705 C.3     1  <0>        -0.1300
     25 C25        -8.2533    2.1873   65.7246 C.3     1  <0>        -0.0600
     26 C26        -8.8625    1.2519   64.7093 C.2     1  <0>         0.0900
     27 C27        -8.2216    0.5025   63.7917 C.2     1  <0>        -0.2600
     28 H28       -10.5792    2.5969   57.5548 H       1  <0>         0.0900
     29 H29        -9.0323    2.2581   58.3676 H       1  <0>         0.0600
     30 H30        -9.1211    3.5170   57.1125 H       1  <0>         0.0700
     31 H31        -9.4418    2.8747   54.7194 H       1  <0>         0.0700
     32 H32        -9.5813    1.1582   54.2696 H       1  <0>         0.0600
     33 H33       -10.8998    1.9545   55.1617 H       1  <0>         0.0900
     34 H34        -7.1816    1.1402   57.1155 H       1  <0>         0.0700
     35 H35        -7.4101    0.6827   55.4106 H       1  <0>         0.0700
     36 H36        -7.2705    2.3992   55.8603 H       1  <0>         0.0800
     37 H37       -11.8366   -1.7721   58.1061 H       1  <0>         0.0800
     38 H38       -10.7252   -2.2192   56.7756 H       1  <0>         0.0900
     39 H39        -9.5741   -5.2434   58.1018 H       1  <0>         0.3900
     40 H40       -11.1702   -3.0517   60.5331 H       1  <0>         0.1000
     41 H41        -9.7085   -4.0777   60.3598 H       1  <0>         0.1100
     42 H42        -8.2365   -1.7589   62.0932 H       1  <0>         0.4200
     43 H43       -11.7044    2.4557   64.8488 H       1  <0>         0.0800
     44 H44       -11.9676    0.9083   65.6933 H       1  <0>         0.0900
     45 H45       -11.2898    2.8393   67.2089 H       1  <0>         0.0900
     46 H46       -10.2311    1.4122   67.3078 H       1  <0>         0.0800
     47 H47        -9.6675    3.8029   65.5013 H       1  <0>         0.0700
     48 H48        -9.0005    3.6320   67.1439 H       1  <0>         0.0800
     49 H49        -7.4845    2.7962   65.2489 H       1  <0>         0.0900
     50 H50        -7.8150    1.6109   66.5393 H       1  <0>         0.0900
     51 H51        -7.1531    0.4565   63.6411 H       1  <0>         0.1700
@<TRIPOS>BOND
     1     1     2    1
     2     1    28    1
     3     1    29    1
     4     1    30    1
     5     2     3    1
     6     2     4    1
     7     2     5    1
     8     3    31    1
     9     3    32    1
    10     3    33    1
    11     4    34    1
    12     4    35    1
    13     4    36    1
    14     5     6    1
    15     6     7    2
    16     6     8   am
    17     8    14    1
    18     8     9    1
    19     9    10    1
    20     9    37    1
    21     9    38    1
    22    10    11    1
    23    10    12    1
    24    10    13    1
    25    12    39    1
    26    13    14    1
    27    13    40    1
    28    13    41    1
    29    14    15    1
    30    14    16    1
    31    16    17    2
    32    16    18   am
    33    18    19    1
    34    18    42    1
    35    19    27    1
    36    19    20    2
    37    20    21    1
    38    21    26    1
    39    21    22    1
    40    22    23    1
    41    22    43    1
    42    22    44    1
    43    23    24    1
    44    23    45    1
    45    23    46    1
    46    24    25    1
    47    24    47    1
    48    24    48    1
    49    25    26    1
    50    25    49    1
    51    25    50    1
    52    26    27    2
    53    27    51    1
@<TRIPOS>SUBSTRUCTURE
     1 <0>         1 TEMP              0 ****  ****    0 ROOT


##########                                Name:    ZINC000915315870
##########                DOCK_Rotatable_Bonds:                   4
##########                         Heavy_Atoms:                  24
##########                    Molecular_Weight:             357.381
##########                DOCK_Rotatable_Bonds:                   4
##########                       Formal_Charge:           0.0300002
##########                     HBond_Acceptors:                   9
##########                        HBond_Donors:                   1
##########                         Heavy_Atoms:                  24
##########                          Grid_Score:          -31.887590
##########                     Grid_vdw_energy:          -30.914667
##########                      Grid_es_energy:           -0.972922
##########           Internal_energy_repulsive:           36.108429

@<TRIPOS>MOLECULE
ZINC000915315870
 41 43 1 0 0
SMALL
USER_CHARGES


@<TRIPOS>ATOM
      1 C1        -14.2484   -4.9164   54.9202 C.3     1  ZINC000915315870    0.0300
      2 O2        -13.6925   -3.6241   55.1710 O.3     1  ZINC000915315870   -0.3200
      3 C3        -12.7435   -3.5380   56.1416 C.ar    1  ZINC000915315870    0.0800
      4 C4        -12.3391   -4.6785   56.8222 C.ar    1  ZINC000915315870    0.0900
      5 F5        -12.8875   -5.8759   56.5209 F       1  ZINC000915315870   -0.1100
      6 C6        -11.3734   -4.5877   57.8091 C.ar    1  ZINC000915315870   -0.0500
      7 C7        -10.8118   -3.3627   58.1181 C.ar    1  ZINC000915315870   -0.6300
      8 S8         -9.5829   -3.2511   59.3758 S.o2    1  ZINC000915315870    2.7000
      9 O9         -9.1446   -4.5792   59.6277 O.2     1  ZINC000915315870   -0.9400
     10 O10        -8.7050   -2.2035   58.9871 O.2     1  ZINC000915315870   -0.9400
     11 N11       -10.3399   -2.7388   60.7567 N.am    1  ZINC000915315870   -1.1100
     12 C12       -11.0346   -1.4491   60.7758 C.3     1  ZINC000915315870    0.2400
     13 H13       -10.8065   -0.8951   59.8653 H       1  ZINC000915315870    0.0900
     14 C14       -12.5480   -1.6778   60.8771 C.3     1  ZINC000915315870   -0.1400
     15 C15       -13.2547   -0.3465   61.1414 C.3     1  ZINC000915315870   -0.1100
     16 C16       -12.9735    0.1134   62.5773 C.3     1  ZINC000915315870   -0.0400
     17 C17       -11.4826    0.0589   62.8065 C.2     1  ZINC000915315870    0.0900
     18 N18       -10.7908    0.6264   63.7514 N.2     1  ZINC000915315870   -0.2900
     19 N19        -9.4399    0.2987   63.5603 N.pl3   1  ZINC000915315870   -0.3800
     20 C20        -8.3214    0.7321   64.4013 C.3     1  ZINC000915315870    0.1000
     21 C21        -9.3520   -0.4877   62.4641 C.2     1  ZINC000915315870    0.0800
     22 C22       -10.5960   -0.6525   61.9798 C.2     1  ZINC000915315870   -0.2500
     23 C23       -11.2120   -2.2252   57.4418 C.ar    1  ZINC000915315870   -0.0500
     24 C24       -12.1731   -2.3103   56.4499 C.ar    1  ZINC000915315870    0.1000
     25 F25       -12.5636   -1.1984   55.7895 F       1  ZINC000915315870   -0.1100
     26 H26       -14.9907   -4.8444   54.1253 H       1  ZINC000915315870    0.1100
     27 H27       -13.4558   -5.6000   54.6161 H       1  ZINC000915315870    0.0600
     28 H28       -14.7226   -5.2904   55.8275 H       1  ZINC000915315870    0.0500
     29 H29       -11.0585   -5.4745   58.3389 H       1  ZINC000915315870    0.1700
     30 H30       -10.3235   -3.2926   61.5529 H       1  ZINC000915315870    0.4200
     31 H31       -12.9137   -2.1032   59.9425 H       1  ZINC000915315870    0.0900
     32 H32       -12.7564   -2.3677   61.6948 H       1  ZINC000915315870    0.0800
     33 H33       -12.8872    0.4042   60.4418 H       1  ZINC000915315870    0.0700
     34 H34       -14.3287   -0.4729   61.0050 H       1  ZINC000915315870    0.0800
     35 H35       -13.3293    1.1348   62.7125 H       1  ZINC000915315870    0.0800
     36 H36       -13.4782   -0.5487   63.2809 H       1  ZINC000915315870    0.0900
     37 H37        -8.1633    0.0056   65.1983 H       1  ZINC000915315870    0.0800
     38 H38        -7.4189    0.8081   63.7947 H       1  ZINC000915315870    0.0900
     39 H39        -8.5497    1.7050   64.8365 H       1  ZINC000915315870    0.0900
     40 H40        -8.4465   -0.9077   62.0515 H       1  ZINC000915315870    0.1700
     41 H41       -10.7711   -1.2699   57.6851 H       1  ZINC000915315870    0.1700
@<TRIPOS>BOND
     1     1     2    1
     2     1    26    1
     3     1    27    1
     4     1    28    1
     5     2     3    1
     6     3    24   ar
     7     3     4   ar
     8     4     5    1
     9     4     6   ar
    10     6     7   ar
    11     6    29    1
    12     7     8    1
    13     7    23   ar
    14     8     9    2
    15     8    10    2
    16     8    11   am
    17    11    12    1
    18    11    30    1
    19    12    13    1
    20    12    22    1
    21    12    14    1
    22    14    15    1
    23    14    31    1
    24    14    32    1
    25    15    16    1
    26    15    33    1
    27    15    34    1
    28    16    17    1
    29    16    35    1
    30    16    36    1
    31    17    22    1
    32    17    18    2
    33    18    19    1
    34    19    20    1
    35    19    21    1
    36    20    37    1
    37    20    38    1
    38    20    39    1
    39    21    22    2
    40    21    40    1
    41    23    24   ar
    42    23    41    1
    43    24    25    1
@<TRIPOS>SUBSTRUCTURE
     1 ZINC000915315870        1 TEMP              0 ****  ****    0 ROOT


##########                                Name:    ZINC000768148687
##########                DOCK_Rotatable_Bonds:                   8
##########                         Heavy_Atoms:                  25
##########                    Molecular_Weight:             371.307
##########                DOCK_Rotatable_Bonds:                   8
##########                       Formal_Charge:         2.98023e-08
##########                     HBond_Acceptors:                  11
##########                        HBond_Donors:                   0
##########                         Heavy_Atoms:                  25
##########                          Grid_Score:          -31.862242
##########                     Grid_vdw_energy:          -31.601665
##########                      Grid_es_energy:           -0.260577
##########           Internal_energy_repulsive:           15.398893

@<TRIPOS>MOLECULE
ZINC000768148687
 43 44 1 0 0
SMALL
USER_CHARGES


@<TRIPOS>ATOM
      1 C1         -9.4934   -3.3460   60.3563 C.3     1  ZINC000768148687   -0.1800
      2 C2         -9.9651   -2.5605   59.1311 C.3     1  ZINC000768148687    0.1100
      3 N3        -11.3824   -2.8402   58.8876 N.pl3   1  ZINC000768148687   -0.3100
      4 N4        -12.4588   -2.2584   59.5665 N.2     1  ZINC000768148687   -0.2000
      5 C5        -13.5717   -2.7420   59.0880 C.2     1  ZINC000768148687    0.0200
      6 C6        -14.9623   -2.3797   59.5418 C.3     1  ZINC000768148687    0.5500
      7 F7        -14.8981   -1.7677   60.7982 F       1  ZINC000768148687   -0.1600
      8 F8        -15.5378   -1.4967   58.6219 F       1  ZINC000768148687   -0.1600
      9 F9        -15.7419   -3.5382   59.6267 F       1  ZINC000768148687   -0.1500
     10 C10       -13.2447   -3.6656   58.0693 C.2     1  ZINC000768148687   -0.1800
     11 C11       -14.1947   -4.4474   57.2596 C.2     1  ZINC000768148687    0.5300
     12 O12       -14.2343   -5.6571   57.3687 O.2     1  ZINC000768148687   -0.4700
     13 O13       -15.0202   -3.8213   56.3979 O.3     1  ZINC000768148687   -0.3400
     14 C14       -14.4014   -3.0479   55.3362 C.3     1  ZINC000768148687    0.0200
     15 C15       -14.1665   -3.9469   54.1207 C.3     1  ZINC000768148687    0.0600
     16 N16       -13.4300   -3.1987   53.0932 N.3     1  ZINC000768148687   -0.5300
     17 C17       -12.0725   -2.8704   53.5520 C.3     1  ZINC000768148687    0.0100
     18 C18       -11.3222   -2.1454   52.4316 C.3     1  ZINC000768148687    0.0600
     19 O19       -12.0595   -0.9821   52.0462 O.3     1  ZINC000768148687   -0.3800
     20 C20       -13.3862   -1.2653   51.5932 C.3     1  ZINC000768148687    0.0600
     21 C21       -14.1574   -1.9813   52.7052 C.3     1  ZINC000768148687    0.0100
     22 C22       -11.8671   -3.6933   57.9716 C.2     1  ZINC000768148687    0.0600
     23 C23       -11.0570   -4.5342   57.0189 C.3     1  ZINC000768148687    0.3400
     24 F24       -10.3625   -3.7005   56.1359 F       1  ZINC000768148687   -0.1700
     25 F25       -10.1451   -5.3105   57.7419 F       1  ZINC000768148687   -0.1800
     26 H26        -8.4389   -3.1378   60.5375 H       1  ZINC000768148687    0.0900
     27 H27       -10.0775   -3.0468   61.2267 H       1  ZINC000768148687    0.0700
     28 H28        -9.6277   -4.4128   60.1778 H       1  ZINC000768148687    0.0700
     29 H29        -9.8309   -1.4936   59.3096 H       1  ZINC000768148687    0.1100
     30 H30        -9.3811   -2.8596   58.2607 H       1  ZINC000768148687    0.1200
     31 H31       -15.0577   -2.2237   55.0572 H       1  ZINC000768148687    0.0800
     32 H32       -13.4477   -2.6511   55.6843 H       1  ZINC000768148687    0.0800
     33 H33       -13.5861   -4.8193   54.4208 H       1  ZINC000768148687    0.1100
     34 H34       -15.1259   -4.2702   53.7171 H       1  ZINC000768148687    0.0900
     35 H35       -12.1306   -2.2247   54.4283 H       1  ZINC000768148687    0.0500
     36 H36       -11.5436   -3.7880   53.8097 H       1  ZINC000768148687    0.0900
     37 H37       -10.3351   -1.8496   52.7867 H       1  ZINC000768148687    0.1000
     38 H38       -11.2172   -2.8103   51.5743 H       1  ZINC000768148687    0.0600
     39 H39       -13.8917   -0.3329   51.3421 H       1  ZINC000768148687    0.1000
     40 H40       -13.3412   -1.9046   50.7117 H       1  ZINC000768148687    0.0600
     41 H41       -15.1503   -2.2499   52.3447 H       1  ZINC000768148687    0.0800
     42 H42       -14.2488   -1.3214   53.5679 H       1  ZINC000768148687    0.0700
     43 H43       -11.7227   -5.1871   56.4544 H       1  ZINC000768148687    0.1500
@<TRIPOS>BOND
     1     1     2    1
     2     1    26    1
     3     1    27    1
     4     1    28    1
     5     2     3    1
     6     2    29    1
     7     2    30    1
     8     3    22    1
     9     3     4    1
    10     4     5    2
    11     5     6    1
    12     5    10    1
    13     6     7    1
    14     6     8    1
    15     6     9    1
    16    10    11    1
    17    10    22    2
    18    11    12    2
    19    11    13    1
    20    13    14    1
    21    14    15    1
    22    14    31    1
    23    14    32    1
    24    15    16    1
    25    15    33    1
    26    15    34    1
    27    16    21    1
    28    16    17    1
    29    17    18    1
    30    17    35    1
    31    17    36    1
    32    18    19    1
    33    18    37    1
    34    18    38    1
    35    19    20    1
    36    20    21    1
    37    20    39    1
    38    20    40    1
    39    21    41    1
    40    21    42    1
    41    22    23    1
    42    23    24    1
    43    23    25    1
    44    23    43    1
@<TRIPOS>SUBSTRUCTURE
     1 ZINC000768148687        1 TEMP              0 ****  ****    0 ROOT


##########                                Name:    ZINC000081577146
##########                DOCK_Rotatable_Bonds:                   4
##########                         Heavy_Atoms:                  25
##########                    Molecular_Weight:             355.464
##########                DOCK_Rotatable_Bonds:                   4
##########                       Formal_Charge:                0.02
##########                     HBond_Acceptors:                   7
##########                        HBond_Donors:                   0
##########                         Heavy_Atoms:                  25
##########                          Grid_Score:          -31.823236
##########                     Grid_vdw_energy:          -29.811275
##########                      Grid_es_energy:           -2.011961
##########           Internal_energy_repulsive:           15.802292

@<TRIPOS>MOLECULE
ZINC000081577146
 46 49 1 0 0
SMALL
USER_CHARGES


@<TRIPOS>ATOM
      1 C1        -13.1505   -1.4662   50.9855 C.3     1  ZINC000081577146   -0.0700
      2 C2        -12.5808   -2.3252   52.0849 C.2     1  ZINC000081577146    0.2900
      3 N3        -11.5269   -3.0614   51.8839 N.2     1  ZINC000081577146   -0.4800
      4 S4        -11.2291   -3.8537   53.3576 S.3     1  ZINC000081577146    0.1900
      5 C5        -12.5656   -3.1340   54.1730 C.2     1  ZINC000081577146    0.2700
      6 N6        -12.9578   -3.3321   55.4845 N.3     1  ZINC000081577146   -0.4300
      7 C7        -14.4198   -3.2593   55.6138 C.3     1  ZINC000081577146    0.0700
      8 C8        -14.8170   -3.5619   57.0605 C.3     1  ZINC000081577146    0.0500
      9 N9        -14.1633   -2.5983   57.9570 N.3     1  ZINC000081577146   -0.5200
     10 C10       -14.5798   -2.8088   59.3499 C.3     1  ZINC000081577146    0.1900
     11 H11       -14.3139   -3.8194   59.6599 H       1  ZINC000081577146    0.0700
     12 C12       -16.0942   -2.6225   59.4630 C.3     1  ZINC000081577146   -0.1500
     13 C13       -13.8831   -1.8111   60.2388 C.2     1  ZINC000081577146    0.1900
     14 N14       -14.3980   -0.6945   60.6719 N.2     1  ZINC000081577146   -0.4500
     15 C15       -13.4918   -0.0653   61.4350 C.2     1  ZINC000081577146   -0.0200
     16 C16       -12.3757   -0.8378   61.4650 C.2     1  ZINC000081577146    0.0000
     17 C17       -11.1186   -0.5420   62.1843 C.ar    1  ZINC000081577146   -0.0200
     18 C18        -9.9526   -1.2443   61.8756 C.ar    1  ZINC000081577146   -0.1000
     19 C19        -8.7826   -0.9630   62.5504 C.ar    1  ZINC000081577146   -0.1200
     20 C20        -8.7635    0.0125   63.5313 C.ar    1  ZINC000081577146   -0.1100
     21 C21        -9.9159    0.7119   63.8424 C.ar    1  ZINC000081577146   -0.1100
     22 C22       -11.0911    0.4448   63.1709 C.ar    1  ZINC000081577146   -0.0900
     23 O23       -12.6367   -1.9316   60.7158 O.3     1  ZINC000081577146   -0.2000
     24 C24       -12.7012   -2.6712   57.8278 C.3     1  ZINC000081577146    0.0600
     25 C25       -12.3039   -2.3686   56.3810 C.3     1  ZINC000081577146    0.0500
     26 N26       -13.1289   -2.3505   53.2776 N.2     1  ZINC000081577146   -0.5400
     27 H27       -12.6835   -0.4817   51.0147 H       1  ZINC000081577146    0.0900
     28 H28       -12.9537   -1.9332   50.0205 H       1  ZINC000081577146    0.0900
     29 H29       -14.2264   -1.3622   51.1262 H       1  ZINC000081577146    0.0900
     30 H30       -14.7592   -2.2589   55.3450 H       1  ZINC000081577146    0.0700
     31 H31       -14.8804   -3.9906   54.9496 H       1  ZINC000081577146    0.1100
     32 H32       -15.8989   -3.4800   57.1653 H       1  ZINC000081577146    0.1000
     33 H33       -14.5017   -4.5724   57.3204 H       1  ZINC000081577146    0.0600
     34 H34       -16.3601   -1.6119   59.1532 H       1  ZINC000081577146    0.0800
     35 H35       -16.5981   -3.3442   58.8201 H       1  ZINC000081577146    0.0800
     36 H36       -16.4032   -2.7787   60.4966 H       1  ZINC000081577146    0.0700
     37 H37       -13.6257    0.8829   61.9344 H       1  ZINC000081577146    0.1900
     38 H38        -9.9663   -2.0065   61.1106 H       1  ZINC000081577146    0.1300
     39 H39        -7.8796   -1.5058   62.3125 H       1  ZINC000081577146    0.1300
     40 H40        -7.8450    0.2285   64.0568 H       1  ZINC000081577146    0.1300
     41 H41        -9.8944    1.4717   64.6097 H       1  ZINC000081577146    0.1300
     42 H42       -11.9899    0.9919   63.4144 H       1  ZINC000081577146    0.1300
     43 H43       -12.2406   -1.9399   58.4919 H       1  ZINC000081577146    0.0900
     44 H44       -12.3618   -3.6716   58.0964 H       1  ZINC000081577146    0.0500
     45 H45       -11.2221   -2.4505   56.2763 H       1  ZINC000081577146    0.1000
     46 H46       -12.6193   -1.3582   56.1210 H       1  ZINC000081577146    0.0800
@<TRIPOS>BOND
     1     1     2    1
     2     1    27    1
     3     1    28    1
     4     1    29    1
     5     2    26    1
     6     2     3    2
     7     3     4    1
     8     4     5    1
     9     5     6    1
    10     5    26    2
    11     6    25    1
    12     6     7    1
    13     7     8    1
    14     7    30    1
    15     7    31    1
    16     8     9    1
    17     8    32    1
    18     8    33    1
    19     9    10    1
    20     9    24    1
    21    10    11    1
    22    10    12    1
    23    10    13    1
    24    12    34    1
    25    12    35    1
    26    12    36    1
    27    13    23    1
    28    13    14    2
    29    14    15    1
    30    15    16    2
    31    15    37    1
    32    16    17    1
    33    16    23    1
    34    17    22   ar
    35    17    18   ar
    36    18    19   ar
    37    18    38    1
    38    19    20   ar
    39    19    39    1
    40    20    21   ar
    41    20    40    1
    42    21    22   ar
    43    21    41    1
    44    22    42    1
    45    24    25    1
    46    24    43    1
    47    24    44    1
    48    25    45    1
    49    25    46    1
@<TRIPOS>SUBSTRUCTURE
     1 ZINC000081577146        1 TEMP              0 ****  ****    0 ROOT


##########                                Name:    ZINC000469391664
##########                DOCK_Rotatable_Bonds:                   6
##########                         Heavy_Atoms:                  29
##########                    Molecular_Weight:             408.524
##########                DOCK_Rotatable_Bonds:                   6
##########                       Formal_Charge:         -0.00999999
##########                     HBond_Acceptors:                   7
##########                        HBond_Donors:                   0
##########                         Heavy_Atoms:                  29
##########                          Grid_Score:          -31.743109
##########                     Grid_vdw_energy:          -30.505899
##########                      Grid_es_energy:           -1.237210
##########           Internal_energy_repulsive:           45.642796

@<TRIPOS>MOLECULE
ZINC000469391664
 53 56 1 0 0
SMALL
USER_CHARGES


@<TRIPOS>ATOM
      1 C1        -14.0593   -1.9991   52.6533 C.3     1  ZINC000469391664   -0.1500
      2 C2        -13.5919   -3.0330   53.6798 C.3     1  ZINC000469391664   -0.1000
      3 H3        -13.2077   -3.9115   53.1613 H       1  ZINC000469391664    0.0800
      4 C4        -14.7708   -3.4395   54.5670 C.3     1  ZINC000469391664   -0.1300
      5 C5        -14.3074   -4.4999   55.5707 C.3     1  ZINC000469391664    0.1100
      6 N6        -13.1486   -3.9785   56.3084 N.am    1  ZINC000469391664   -0.6100
      7 C7        -13.1435   -3.9614   57.6560 C.2     1  ZINC000469391664    0.5600
      8 O8        -14.1040   -4.3802   58.2731 O.2     1  ZINC000469391664   -0.5000
      9 C9        -11.9727   -3.4349   58.3824 C.ar    1  ZINC000469391664   -0.1100
     10 C10       -10.7036   -3.9701   58.1515 C.ar    1  ZINC000469391664   -0.0900
     11 C11        -9.6134   -3.4733   58.8332 C.ar    1  ZINC000469391664   -0.1000
     12 C12        -9.7695   -2.4448   59.7481 C.ar    1  ZINC000469391664   -0.0900
     13 C13       -11.0177   -1.9059   59.9875 C.ar    1  ZINC000469391664   -0.1000
     14 C14       -12.1265   -2.3892   59.3056 C.ar    1  ZINC000469391664    0.1500
     15 N15       -13.3858   -1.8474   59.5453 N.am    1  ZINC000469391664   -0.5800
     16 C16       -14.3602   -2.5871   60.3512 C.3     1  ZINC000469391664    0.0900
     17 C17       -13.7090   -0.6422   59.0358 C.2     1  ZINC000469391664    0.6100
     18 O18       -14.8102   -0.1684   59.2455 O.2     1  ZINC000469391664   -0.5200
     19 C19       -12.7344    0.0976   58.2297 C.2     1  ZINC000469391664   -0.2600
     20 C20       -12.5545    1.4525   58.2493 C.2     1  ZINC000469391664   -0.0500
     21 C21       -11.5700    1.8825   57.3917 C.2     1  ZINC000469391664   -0.1500
     22 C22       -10.9634    0.9156   56.6931 C.2     1  ZINC000469391664   -0.2600
     23 S23       -11.6038   -0.6158   57.0876 S.3     1  ZINC000469391664    0.2300
     24 C24       -11.9954   -3.4764   55.5490 C.3     1  ZINC000469391664    0.1000
     25 C25       -12.4850   -2.4273   54.5457 C.3     1  ZINC000469391664    0.1300
     26 H26       -12.8752   -1.5635   55.0839 H       1  ZINC000469391664    0.1000
     27 N27       -11.3700   -2.0090   53.6924 N.pl3   1  ZINC000469391664   -0.4500
     28 C28       -10.9722   -0.7222   53.4485 C.2     1  ZINC000469391664   -0.0500
     29 C29        -9.9157   -0.7921   52.6163 C.2     1  ZINC000469391664   -0.0300
     30 N30        -9.6751   -2.0862   52.3590 N.2     1  ZINC000469391664   -0.4900
     31 C31       -10.5390   -2.8212   53.0042 C.2     1  ZINC000469391664    0.1800
     32 H32       -13.2199   -1.7099   52.0209 H       1  ZINC000469391664    0.0600
     33 H33       -14.8474   -2.4306   52.0361 H       1  ZINC000469391664    0.0600
     34 H34       -14.4435   -1.1206   53.1715 H       1  ZINC000469391664    0.0600
     35 H35       -15.1395   -2.5661   55.1048 H       1  ZINC000469391664    0.0700
     36 H36       -15.5683   -3.8492   53.9472 H       1  ZINC000469391664    0.0900
     37 H37       -15.1154   -4.7207   56.2682 H       1  ZINC000469391664    0.1000
     38 H38       -14.0233   -5.4077   55.0383 H       1  ZINC000469391664    0.0800
     39 H39       -10.5766   -4.7724   57.4399 H       1  ZINC000469391664    0.1400
     40 H40        -8.6328   -3.8882   58.6534 H       1  ZINC000469391664    0.1400
     41 H41        -8.9093   -2.0625   60.2775 H       1  ZINC000469391664    0.1400
     42 H42       -11.1312   -1.1045   60.7025 H       1  ZINC000469391664    0.1400
     43 H43       -14.3057   -2.2506   61.3865 H       1  ZINC000469391664    0.0600
     44 H44       -15.3631   -2.4083   59.9634 H       1  ZINC000469391664    0.0900
     45 H45       -14.1369   -3.6529   60.3034 H       1  ZINC000469391664    0.0700
     46 H46       -13.1288    2.1188   58.8759 H       1  ZINC000469391664    0.1500
     47 H47       -11.3056    2.9246   57.2890 H       1  ZINC000469391664    0.1400
     48 H48       -10.1713    1.0821   55.9780 H       1  ZINC000469391664    0.1600
     49 H49       -11.2780   -3.0218   56.2321 H       1  ZINC000469391664    0.1000
     50 H50       -11.5228   -4.3006   55.0148 H       1  ZINC000469391664    0.0800
     51 H51       -11.4198    0.1764   53.8467 H       1  ZINC000469391664    0.1700
     52 H52        -9.3598    0.0470   52.2246 H       1  ZINC000469391664    0.1700
     53 H53       -10.5860   -3.9001   52.9856 H       1  ZINC000469391664    0.2000
@<TRIPOS>BOND
     1     1     2    1
     2     1    32    1
     3     1    33    1
     4     1    34    1
     5     2     3    1
     6     2    25    1
     7     2     4    1
     8     4     5    1
     9     4    35    1
    10     4    36    1
    11     5     6    1
    12     5    37    1
    13     5    38    1
    14     6     7   am
    15     6    24    1
    16     7     8    2
    17     7     9    1
    18     9    14   ar
    19     9    10   ar
    20    10    11   ar
    21    10    39    1
    22    11    12   ar
    23    11    40    1
    24    12    13   ar
    25    12    41    1
    26    13    14   ar
    27    13    42    1
    28    14    15    1
    29    15    16    1
    30    15    17   am
    31    16    43    1
    32    16    44    1
    33    16    45    1
    34    17    18    2
    35    17    19    1
    36    19    23    1
    37    19    20    2
    38    20    21    1
    39    20    46    1
    40    21    22    2
    41    21    47    1
    42    22    23    1
    43    22    48    1
    44    24    25    1
    45    24    49    1
    46    24    50    1
    47    25    26    1
    48    25    27    1
    49    27    31    1
    50    27    28    1
    51    28    29    2
    52    28    51    1
    53    29    30    1
    54    29    52    1
    55    30    31    2
    56    31    53    1
@<TRIPOS>SUBSTRUCTURE
     1 ZINC000469391664        1 TEMP              0 ****  ****    0 ROOT


##########                                Name:    ZINC000329637067
##########                DOCK_Rotatable_Bonds:                   5
##########                         Heavy_Atoms:                  26
##########                    Molecular_Weight:             362.429
##########                DOCK_Rotatable_Bonds:                   5
##########                       Formal_Charge:           0.0199998
##########                     HBond_Acceptors:                   8
##########                        HBond_Donors:                   0
##########                         Heavy_Atoms:                  26
##########                          Grid_Score:          -31.701969
##########                     Grid_vdw_energy:          -30.479650
##########                      Grid_es_energy:           -1.222318
##########           Internal_energy_repulsive:           26.729057

@<TRIPOS>MOLECULE
ZINC000329637067
 52 54 1 0 0
SMALL
USER_CHARGES


@<TRIPOS>ATOM
      1 C1         -9.1706   -3.4152   59.9695 C.3     1  ZINC000329637067   -0.1300
      2 C2         -9.5761   -2.1354   60.6543 C.2     1  ZINC000329637067    0.2200
      3 C3         -8.9678   -1.7495   61.8082 C.2     1  ZINC000329637067   -0.2900
      4 C4         -9.3656   -0.5572   62.4202 C.2     1  ZINC000329637067    0.2800
      5 C5         -8.7067   -0.1079   63.6988 C.3     1  ZINC000329637067   -0.1200
      6 N6        -10.3179    0.1730   61.8760 N.2     1  ZINC000329637067   -0.5500
      7 C7        -10.9113   -0.2110   60.7431 C.2     1  ZINC000329637067    0.6400
      8 O8        -11.7901    0.4829   60.2599 O.2     1  ZINC000329637067   -0.5300
      9 N9        -10.5497   -1.3502   60.1237 N.am    1  ZINC000329637067   -0.5000
     10 C10       -11.2154   -1.7500   58.8815 C.3     1  ZINC000329637067    0.0700
     11 C11       -12.5369   -2.3979   59.2058 C.2     1  ZINC000329637067    0.5100
     12 O12       -12.9392   -2.4151   60.3498 O.2     1  ZINC000329637067   -0.5200
     13 N13       -13.2716   -2.9581   58.2245 N.am    1  ZINC000329637067   -0.6100
     14 C14       -14.5618   -3.5934   58.5252 C.3     1  ZINC000329637067    0.1000
     15 C15       -15.6350   -2.9832   57.6183 C.3     1  ZINC000329637067   -0.1400
     16 C16       -15.1964   -3.1115   56.1578 C.3     1  ZINC000329637067   -0.1000
     17 C17       -13.8907   -2.3421   55.9461 C.3     1  ZINC000329637067   -0.1200
     18 H18       -14.0382   -1.2951   56.2110 H       1  ZINC000329637067    0.1000
     19 C19       -13.4770   -2.4414   54.5003 C.2     1  ZINC000329637067    0.5300
     20 O20       -13.8972   -3.3458   53.8102 O.2     1  ZINC000329637067   -0.5300
     21 N21       -12.6400   -1.5252   53.9744 N.am    1  ZINC000329637067   -0.6200
     22 C22       -12.1123   -0.4227   54.7938 C.3     1  ZINC000329637067    0.0800
     23 C23       -10.5894   -0.3799   54.6238 C.3     1  ZINC000329637067    0.0500
     24 O24       -10.2723   -0.3434   53.2302 O.3     1  ZINC000329637067   -0.3800
     25 C25       -10.6980   -1.4981   52.5027 C.3     1  ZINC000329637067    0.0500
     26 C26       -12.2220   -1.6014   52.5656 C.3     1  ZINC000329637067    0.0700
     27 C27       -12.8005   -2.9396   56.8331 C.3     1  ZINC000329637067    0.1200
     28 H28        -8.8812   -3.2008   58.9407 H       1  ZINC000329637067    0.0900
     29 H29        -8.3278   -3.8594   60.4990 H       1  ZINC000329637067    0.1000
     30 H30       -10.0097   -4.1109   59.9733 H       1  ZINC000329637067    0.0900
     31 H31        -8.1886   -2.3561   62.2456 H       1  ZINC000329637067    0.1600
     32 H32        -7.8434    0.5145   63.4634 H       1  ZINC000329637067    0.1000
     33 H33        -9.4182    0.4668   64.2918 H       1  ZINC000329637067    0.0900
     34 H34        -8.3819   -0.9802   64.2662 H       1  ZINC000329637067    0.0900
     35 H35       -11.3847   -0.8704   58.2606 H       1  ZINC000329637067    0.1200
     36 H36       -10.5856   -2.4588   58.3437 H       1  ZINC000329637067    0.1300
     37 H37       -14.4932   -4.6654   58.3399 H       1  ZINC000329637067    0.0800
     38 H38       -14.8217   -3.4168   59.5689 H       1  ZINC000329637067    0.0900
     39 H39       -16.5772   -3.5119   57.7630 H       1  ZINC000329637067    0.0900
     40 H40       -15.7663   -1.9302   57.8677 H       1  ZINC000329637067    0.0700
     41 H41       -15.0416   -4.1631   55.9162 H       1  ZINC000329637067    0.0800
     42 H42       -15.9697   -2.7001   55.5089 H       1  ZINC000329637067    0.0800
     43 H43       -12.5454    0.5210   54.4623 H       1  ZINC000329637067    0.0800
     44 H44       -12.3601   -0.5929   55.8416 H       1  ZINC000329637067    0.1000
     45 H45       -10.1936    0.5114   55.1107 H       1  ZINC000329637067    0.1100
     46 H46       -10.1476   -1.2685   55.0745 H       1  ZINC000329637067    0.0600
     47 H47       -10.3804   -1.4112   51.4636 H       1  ZINC000329637067    0.1100
     48 H48       -10.2566   -2.3907   52.9457 H       1  ZINC000329637067    0.0600
     49 H49       -12.5437   -2.5502   52.1365 H       1  ZINC000329637067    0.1000
     50 H50       -12.6691   -0.7765   52.0107 H       1  ZINC000329637067    0.0800
     51 H51       -11.8970   -2.3342   56.7597 H       1  ZINC000329637067    0.1000
     52 H52       -12.5865   -3.9592   56.5123 H       1  ZINC000329637067    0.0800
@<TRIPOS>BOND
     1     1     2    1
     2     1    28    1
     3     1    29    1
     4     1    30    1
     5     2     9    1
     6     2     3    2
     7     3     4    1
     8     3    31    1
     9     4     5    1
    10     4     6    2
    11     5    32    1
    12     5    33    1
    13     5    34    1
    14     6     7    1
    15     7     8    2
    16     7     9   am
    17     9    10    1
    18    10    11    1
    19    10    35    1
    20    10    36    1
    21    11    12    2
    22    11    13   am
    23    13    27    1
    24    13    14    1
    25    14    15    1
    26    14    37    1
    27    14    38    1
    28    15    16    1
    29    15    39    1
    30    15    40    1
    31    16    17    1
    32    16    41    1
    33    16    42    1
    34    17    18    1
    35    17    19    1
    36    17    27    1
    37    19    20    2
    38    19    21   am
    39    21    26    1
    40    21    22    1
    41    22    23    1
    42    22    43    1
    43    22    44    1
    44    23    24    1
    45    23    45    1
    46    23    46    1
    47    24    25    1
    48    25    26    1
    49    25    47    1
    50    25    48    1
    51    26    49    1
    52    26    50    1
    53    27    51    1
    54    27    52    1
@<TRIPOS>SUBSTRUCTURE
     1 ZINC000329637067        1 TEMP              0 ****  ****    0 ROOT


##########                                Name:    ZINC001513543414
##########                DOCK_Rotatable_Bonds:                   6
##########                         Heavy_Atoms:                  26
##########                    Molecular_Weight:             364.488
##########                DOCK_Rotatable_Bonds:                   6
##########                       Formal_Charge:         -0.00999974
##########                     HBond_Acceptors:                   7
##########                        HBond_Donors:                   0
##########                         Heavy_Atoms:                  26
##########                          Grid_Score:          -31.666388
##########                     Grid_vdw_energy:          -31.406893
##########                      Grid_es_energy:           -0.259495
##########           Internal_energy_repulsive:           22.028076

@<TRIPOS>MOLECULE
ZINC001513543414
 58 61 1 0 0
SMALL
USER_CHARGES


@<TRIPOS>ATOM
      1 C1        -18.3312   -1.7951   58.5706 C.3     1  ZINC001513543414   -0.1500
      2 C2        -16.9244   -2.3956   58.5401 C.3     1  ZINC001513543414   -0.1200
      3 C3        -15.9251   -1.3311   58.0831 C.3     1  ZINC001513543414    0.1100
      4 C4        -16.3396   -0.7833   56.7160 C.3     1  ZINC001513543414   -0.1500
      5 C5        -15.8731   -0.1841   59.1150 C.3     1  ZINC001513543414   -0.1500
      6 C6        -14.3593    0.1613   59.1479 C.3     1  ZINC001513543414   -0.1500
      7 C7        -13.7333   -1.2383   58.9245 C.3     1  ZINC001513543414    0.0700
      8 H8        -13.6896   -1.7877   59.8650 H       1  ZINC001513543414    0.0800
      9 C9        -12.3327   -1.1039   58.3233 C.3     1  ZINC001513543414    0.1100
     10 N10       -11.7002   -2.4237   58.2590 N.pl3   1  ZINC001513543414   -0.4600
     11 C11       -10.8468   -2.9756   59.1738 C.2     1  ZINC001513543414    0.1900
     12 C12       -10.3731   -2.3353   60.4531 C.3     1  ZINC001513543414    0.1800
     13 H13        -9.9775   -3.0922   61.1303 H       1  ZINC001513543414    0.1000
     14 C14        -9.2930   -1.2660   60.1515 C.3     1  ZINC001513543414   -0.1500
     15 C15        -9.4336   -0.3460   61.3948 C.3     1  ZINC001513543414   -0.1500
     16 C16       -10.9475   -0.4207   61.6880 C.3     1  ZINC001513543414    0.0500
     17 O17       -11.4486   -1.6185   61.0799 O.3     1  ZINC001513543414   -0.3500
     18 N18       -10.5198   -4.1579   58.7347 N.2     1  ZINC001513543414   -0.2600
     19 N19       -11.1040   -4.3889   57.6135 N.2     1  ZINC001513543414   -0.3100
     20 C20       -11.8452   -3.3598   57.2767 C.2     1  ZINC001513543414    0.3400
     21 N21       -12.6217   -3.2422   56.1349 N.3     1  ZINC001513543414   -0.4500
     22 C22       -13.1789   -4.5522   55.7359 C.3     1  ZINC001513543414    0.0500
     23 C23       -13.2268   -4.5069   54.1883 C.3     1  ZINC001513543414   -0.1500
     24 C24       -11.9277   -3.7262   53.8573 C.3     1  ZINC001513543414    0.0700
     25 H25       -11.0658   -4.3934   53.8597 H       1  ZINC001513543414    0.0800
     26 O26       -12.0454   -3.0601   52.5984 O.3     1  ZINC001513543414   -0.3800
     27 C27       -10.8539   -2.3901   52.1818 C.3     1  ZINC001513543414    0.0300
     28 C28       -11.8314   -2.7063   55.0114 C.3     1  ZINC001513543414    0.0600
     29 O29       -14.6129   -1.8996   58.0012 O.3     1  ZINC001513543414   -0.3600
     30 H30       -19.0431   -2.5535   58.8963 H       1  ZINC001513543414    0.0500
     31 H31       -18.3526   -0.9549   59.2648 H       1  ZINC001513543414    0.0500
     32 H32       -18.6002   -1.4488   57.5727 H       1  ZINC001513543414    0.0600
     33 H33       -16.6554   -2.7419   59.5380 H       1  ZINC001513543414    0.0700
     34 H34       -16.9030   -3.2358   57.8461 H       1  ZINC001513543414    0.0600
     35 H35       -17.3267   -0.3272   56.7914 H       1  ZINC001513543414    0.0700
     36 H36       -15.6174   -0.0347   56.3903 H       1  ZINC001513543414    0.0600
     37 H37       -16.3701   -1.5978   55.9923 H       1  ZINC001513543414    0.0700
     38 H38       -16.4586    0.6702   58.7755 H       1  ZINC001513543414    0.0900
     39 H39       -16.2143   -0.5258   60.0923 H       1  ZINC001513543414    0.0800
     40 H40       -14.0945    0.8436   58.3401 H       1  ZINC001513543414    0.0800
     41 H41       -14.0707    0.5709   60.1160 H       1  ZINC001513543414    0.0900
     42 H42       -12.4069   -0.6872   57.3189 H       1  ZINC001513543414    0.1000
     43 H43       -11.7314   -0.4429   58.9475 H       1  ZINC001513543414    0.1100
     44 H44        -8.3000   -1.7132   60.1040 H       1  ZINC001513543414    0.0900
     45 H45        -9.5220   -0.7242   59.2339 H       1  ZINC001513543414    0.0900
     46 H46        -8.8564   -0.7360   62.2333 H       1  ZINC001513543414    0.0800
     47 H47        -9.1343    0.6749   61.1578 H       1  ZINC001513543414    0.0900
     48 H48       -11.1143   -0.4565   62.7645 H       1  ZINC001513543414    0.0700
     49 H49       -11.4496    0.4487   61.2635 H       1  ZINC001513543414    0.0700
     50 H50       -12.5282   -5.3595   56.0720 H       1  ZINC001513543414    0.0600
     51 H51       -14.1821   -4.6777   56.1432 H       1  ZINC001513543414    0.0900
     52 H52       -13.1965   -5.5118   53.7671 H       1  ZINC001513543414    0.0800
     53 H53       -14.1068   -3.9659   53.8406 H       1  ZINC001513543414    0.0900
     54 H54       -11.0250   -1.9100   51.2183 H       1  ZINC001513543414    0.0900
     55 H55       -10.5840   -1.6358   52.9208 H       1  ZINC001513543414    0.0400
     56 H56       -10.0439   -3.1136   52.0886 H       1  ZINC001513543414    0.0400
     57 H57       -12.2410   -1.7473   54.6940 H       1  ZINC001513543414    0.1000
     58 H58       -10.7911   -2.5859   55.3139 H       1  ZINC001513543414    0.0900
@<TRIPOS>BOND
     1     1     2    1
     2     1    30    1
     3     1    31    1
     4     1    32    1
     5     2     3    1
     6     2    33    1
     7     2    34    1
     8     3    29    1
     9     3     4    1
    10     3     5    1
    11     4    35    1
    12     4    36    1
    13     4    37    1
    14     5     6    1
    15     5    38    1
    16     5    39    1
    17     6     7    1
    18     6    40    1
    19     6    41    1
    20     7     8    1
    21     7     9    1
    22     7    29    1
    23     9    10    1
    24     9    42    1
    25     9    43    1
    26    10    20    1
    27    10    11    1
    28    11    12    1
    29    11    18    2
    30    12    13    1
    31    12    17    1
    32    12    14    1
    33    14    15    1
    34    14    44    1
    35    14    45    1
    36    15    16    1
    37    15    46    1
    38    15    47    1
    39    16    17    1
    40    16    48    1
    41    16    49    1
    42    18    19    1
    43    19    20    2
    44    20    21    1
    45    21    28    1
    46    21    22    1
    47    22    23    1
    48    22    50    1
    49    22    51    1
    50    23    24    1
    51    23    52    1
    52    23    53    1
    53    24    25    1
    54    24    26    1
    55    24    28    1
    56    26    27    1
    57    27    54    1
    58    27    55    1
    59    27    56    1
    60    28    57    1
    61    28    58    1
@<TRIPOS>SUBSTRUCTURE
     1 ZINC001513543414        1 TEMP              0 ****  ****    0 ROOT


##########                                Name:    ZINC001079355651
##########                DOCK_Rotatable_Bonds:                   5
##########                         Heavy_Atoms:                  25
##########                    Molecular_Weight:             353.851
##########                DOCK_Rotatable_Bonds:                   5
##########                       Formal_Charge:           0.0199997
##########                     HBond_Acceptors:                   5
##########                        HBond_Donors:                   1
##########                         Heavy_Atoms:                  25
##########                          Grid_Score:          -31.638435
##########                     Grid_vdw_energy:          -32.150658
##########                      Grid_es_energy:            0.512222
##########           Internal_energy_repulsive:            9.266597

@<TRIPOS>MOLECULE
ZINC001079355651
 45 47 1 0 0
SMALL
USER_CHARGES


@<TRIPOS>ATOM
      1 C1        -10.5450    0.6600   58.8861 C.3     1  ZINC001079355651   -0.1500
      2 C2         -9.7459   -0.2620   59.8095 C.3     1  ZINC001079355651   -0.1000
      3 H3         -8.9543    0.2968   60.3085 H       1  ZINC001079355651    0.0900
      4 C4         -9.1484   -1.4377   59.0070 C.3     1  ZINC001079355651    0.0300
      5 N5         -9.2475   -2.6040   59.9219 N.3     1  ZINC001079355651   -0.5100
      6 C6         -9.1927   -3.8666   59.1731 C.3     1  ZINC001079355651    0.1600
      7 C7        -10.1552   -3.8193   58.0604 C.1     1  ZINC001079355651   -0.1400
      8 C8        -10.9229   -3.7816   57.1730 C.1     1  ZINC001079355651   -0.1300
      9 C9        -11.8592   -3.7356   56.0905 C.ar    1  ZINC001079355651    0.0300
     10 C10       -13.2155   -3.9619   56.3275 C.ar    1  ZINC001079355651   -0.0900
     11 C11       -14.1133   -3.9164   55.2804 C.ar    1  ZINC001079355651   -0.1000
     12 C12       -13.6717   -3.6472   53.9977 C.ar    1  ZINC001079355651   -0.1000
     13 C13       -12.3271   -3.4221   53.7552 C.ar    1  ZINC001079355651   -0.0300
     14 Cl14      -11.7821   -3.0856   52.1416 Cl      1  ZINC001079355651   -0.0600
     15 C15       -11.4198   -3.4589   54.7953 C.ar    1  ZINC001079355651   -0.0900
     16 C16       -10.5655   -2.4357   60.5863 C.3     1  ZINC001079355651    0.0200
     17 C17       -10.6777   -0.9165   60.8501 C.3     1  ZINC001079355651    0.1500
     18 H18       -11.7044   -0.5814   60.7026 H       1  ZINC001079355651    0.1000
     19 N19       -10.2311   -0.6016   62.2095 N.am    1  ZINC001079355651   -0.7100
     20 C20       -10.7900    0.4241   62.8818 C.2     1  ZINC001079355651    0.5600
     21 O21       -11.6652    1.0869   62.3610 O.2     1  ZINC001079355651   -0.5300
     22 C22       -10.3372    0.7435   64.2558 C.ar    1  ZINC001079355651   -0.0900
     23 C23       -10.9207    1.7873   64.9802 C.ar    1  ZINC001079355651   -0.1400
     24 C24       -10.4676    2.0506   66.2584 C.ar    1  ZINC001079355651    0.1000
     25 N25        -9.5002    1.3336   66.7948 N.ar    1  ZINC001079355651   -0.4700
     26 C26        -8.9233    0.3413   66.1466 C.ar    1  ZINC001079355651    0.1000
     27 C27        -9.3184    0.0057   64.8661 C.ar    1  ZINC001079355651   -0.1200
     28 H28       -11.0016    1.4561   59.4741 H       1  ZINC001079355651    0.0600
     29 H29        -9.8784    1.0948   58.1414 H       1  ZINC001079355651    0.0700
     30 H30       -11.3242    0.0857   58.3850 H       1  ZINC001079355651    0.0600
     31 H31        -9.7294   -1.6142   58.1018 H       1  ZINC001079355651    0.0600
     32 H32        -8.1064   -1.2373   58.7579 H       1  ZINC001079355651    0.0900
     33 H33        -8.1872   -4.0112   58.7778 H       1  ZINC001079355651    0.0700
     34 H34        -9.4447   -4.6938   59.8367 H       1  ZINC001079355651    0.1100
     35 H35       -13.5619   -4.1727   57.3284 H       1  ZINC001079355651    0.1300
     36 H36       -15.1632   -4.0918   55.4630 H       1  ZINC001079355651    0.1400
     37 H37       -14.3785   -3.6128   53.1818 H       1  ZINC001079355651    0.1400
     38 H38       -10.3712   -3.2831   54.6055 H       1  ZINC001079355651    0.1400
     39 H39       -11.3682   -2.7685   59.9283 H       1  ZINC001079355651    0.0600
     40 H40       -10.5903   -2.9868   61.5265 H       1  ZINC001079355651    0.0900
     41 H41        -9.5334   -1.1316   62.6257 H       1  ZINC001079355651    0.4000
     42 H42       -11.7135    2.3791   64.5470 H       1  ZINC001079355651    0.1400
     43 H43       -10.9118    2.8550   66.8259 H       1  ZINC001079355651    0.1600
     44 H44        -8.1339   -0.2196   66.6248 H       1  ZINC001079355651    0.1700
     45 H45        -8.8411   -0.8085   64.3410 H       1  ZINC001079355651    0.1500
@<TRIPOS>BOND
     1     1     2    1
     2     1    28    1
     3     1    29    1
     4     1    30    1
     5     2     3    1
     6     2    17    1
     7     2     4    1
     8     4     5    1
     9     4    31    1
    10     4    32    1
    11     5     6    1
    12     5    16    1
    13     6     7    1
    14     6    33    1
    15     6    34    1
    16     7     8    3
    17     8     9    1
    18     9    15   ar
    19     9    10   ar
    20    10    11   ar
    21    10    35    1
    22    11    12   ar
    23    11    36    1
    24    12    13   ar
    25    12    37    1
    26    13    14    1
    27    13    15   ar
    28    15    38    1
    29    16    17    1
    30    16    39    1
    31    16    40    1
    32    17    18    1
    33    17    19    1
    34    19    20   am
    35    19    41    1
    36    20    21    2
    37    20    22    1
    38    22    27   ar
    39    22    23   ar
    40    23    24   ar
    41    23    42    1
    42    24    25   ar
    43    24    43    1
    44    25    26   ar
    45    26    27   ar
    46    26    44    1
    47    27    45    1
@<TRIPOS>SUBSTRUCTURE
     1 ZINC001079355651        1 TEMP              0 ****  ****    0 ROOT


##########                                Name:    ZINC000171059239
##########                DOCK_Rotatable_Bonds:                   8
##########                         Heavy_Atoms:                  25
##########                    Molecular_Weight:              333.39
##########                DOCK_Rotatable_Bonds:                   8
##########                       Formal_Charge:         1.10269e-06
##########                     HBond_Acceptors:                   5
##########                        HBond_Donors:                   4
##########                         Heavy_Atoms:                  25
##########                          Grid_Score:          -31.627445
##########                     Grid_vdw_energy:          -29.043425
##########                      Grid_es_energy:           -2.584021
##########           Internal_energy_repulsive:           10.967693

@<TRIPOS>MOLECULE
ZINC000171059239
 44 46 1 0 0
SMALL
USER_CHARGES


@<TRIPOS>ATOM
      1 N1        -15.6660   -3.2453   57.8697 N.am    1  ZINC000171059239   -0.8500
      2 C2        -14.4412   -3.8070   57.8915 C.2     1  ZINC000171059239    0.5600
      3 O3        -14.3244   -5.0140   57.8069 O.2     1  ZINC000171059239   -0.5400
      4 C4        -13.2394   -2.9552   58.0185 C.ar    1  ZINC000171059239   -0.1400
      5 C5        -13.3636   -1.5652   58.0293 C.ar    1  ZINC000171059239   -0.0900
      6 C6        -12.2382   -0.7760   58.1485 C.ar    1  ZINC000171059239   -0.1200
      7 C7        -10.9886   -1.3597   58.2566 C.ar    1  ZINC000171059239   -0.0800
      8 C8        -10.8584   -2.7373   58.2460 C.ar    1  ZINC000171059239   -0.0900
      9 C9         -9.4933   -3.3645   58.3638 C.3     1  ZINC000171059239   -0.0900
     10 C10        -9.1821   -3.6359   59.8370 C.3     1  ZINC000171059239    0.1400
     11 N11        -8.7377   -2.3962   60.4788 N.am    1  ZINC000171059239   -0.7400
     12 C12        -9.5961   -1.6835   61.2347 C.2     1  ZINC000171059239    0.7000
     13 O13       -10.7390   -2.0702   61.3854 O.2     1  ZINC000171059239   -0.5700
     14 N14        -9.1878   -0.5421   61.8238 N.am    1  ZINC000171059239   -0.6800
     15 C15       -10.0771    0.1963   62.6070 C.ar    1  ZINC000171059239    0.1700
     16 C16        -9.8149    0.4042   63.9778 C.ar    1  ZINC000171059239   -0.0600
     17 C17        -8.6640   -0.1201   64.5868 C.ar    1  ZINC000171059239   -0.1100
     18 C18        -8.4427    0.1004   65.9120 C.ar    1  ZINC000171059239   -0.1100
     19 C19        -9.3434    0.8403   66.6757 C.ar    1  ZINC000171059239   -0.1200
     20 C20       -10.4696    1.3637   66.1188 C.ar    1  ZINC000171059239   -0.1000
     21 C21       -10.7311    1.1569   64.7532 C.ar    1  ZINC000171059239   -0.0400
     22 C22       -11.8833    1.6828   64.1447 C.ar    1  ZINC000171059239   -0.1200
     23 C23       -12.1111    1.4671   62.8197 C.ar    1  ZINC000171059239   -0.0900
     24 C24       -11.2161    0.7334   62.0470 C.ar    1  ZINC000171059239   -0.1200
     25 C25       -11.9762   -3.5379   58.1337 C.ar    1  ZINC000171059239   -0.0500
     26 H26       -16.4544   -3.8041   57.7853 H       1  ZINC000171059239    0.4100
     27 H27       -15.7595   -2.2825   57.9424 H       1  ZINC000171059239    0.4000
     28 H28       -14.3385   -1.1083   57.9442 H       1  ZINC000171059239    0.1300
     29 H29       -12.3329    0.2998   58.1570 H       1  ZINC000171059239    0.1300
     30 H30       -10.1108   -0.7375   58.3493 H       1  ZINC000171059239    0.1300
     31 H31        -9.4754   -4.3030   57.8097 H       1  ZINC000171059239    0.0800
     32 H32        -8.7452   -2.6861   57.9535 H       1  ZINC000171059239    0.0800
     33 H33       -10.0791   -4.0022   60.3363 H       1  ZINC000171059239    0.0700
     34 H34        -8.3941   -4.3854   59.9097 H       1  ZINC000171059239    0.0700
     35 H35        -7.8255   -2.0883   60.3596 H       1  ZINC000171059239    0.4000
     36 H36        -8.2760   -0.2336   61.7037 H       1  ZINC000171059239    0.4100
     37 H37        -7.9577   -0.6960   64.0072 H       1  ZINC000171059239    0.1200
     38 H38        -7.5564   -0.3040   66.3781 H       1  ZINC000171059239    0.1200
     39 H39        -9.1451    1.0004   67.7252 H       1  ZINC000171059239    0.1200
     40 H40       -11.1590    1.9347   66.7231 H       1  ZINC000171059239    0.1300
     41 H41       -12.5879    2.2574   64.7277 H       1  ZINC000171059239    0.1300
     42 H42       -12.9993    1.8751   62.3603 H       1  ZINC000171059239    0.1300
     43 H43       -11.4199    0.5770   60.9980 H       1  ZINC000171059239    0.1400
     44 H44       -11.8732   -4.6129   58.1258 H       1  ZINC000171059239    0.1400
@<TRIPOS>BOND
     1     1     2   am
     2     1    26    1
     3     1    27    1
     4     2     3    2
     5     2     4    1
     6     4    25   ar
     7     4     5   ar
     8     5     6   ar
     9     5    28    1
    10     6     7   ar
    11     6    29    1
    12     7     8   ar
    13     7    30    1
    14     8     9    1
    15     8    25   ar
    16     9    10    1
    17     9    31    1
    18     9    32    1
    19    10    11    1
    20    10    33    1
    21    10    34    1
    22    11    12   am
    23    11    35    1
    24    12    13    2
    25    12    14   am
    26    14    15    1
    27    14    36    1
    28    15    24   ar
    29    15    16   ar
    30    16    21   ar
    31    16    17   ar
    32    17    18   ar
    33    17    37    1
    34    18    19   ar
    35    18    38    1
    36    19    20   ar
    37    19    39    1
    38    20    21   ar
    39    20    40    1
    40    21    22   ar
    41    22    23   ar
    42    22    41    1
    43    23    24   ar
    44    23    42    1
    45    24    43    1
    46    25    44    1
@<TRIPOS>SUBSTRUCTURE
     1 ZINC000171059239        1 TEMP              0 ****  ****    0 ROOT


##########                                Name:    ZINC000588570917
##########                DOCK_Rotatable_Bonds:                   7
##########                         Heavy_Atoms:                  25
##########                    Molecular_Weight:             366.481
##########                DOCK_Rotatable_Bonds:                   7
##########                       Formal_Charge:          -0.0100006
##########                     HBond_Acceptors:                   7
##########                        HBond_Donors:                   1
##########                         Heavy_Atoms:                  25
##########                          Grid_Score:          -31.624590
##########                     Grid_vdw_energy:          -30.947081
##########                      Grid_es_energy:           -0.677509
##########           Internal_energy_repulsive:           16.401049

@<TRIPOS>MOLECULE
ZINC000588570917
 51 52 1 0 0
SMALL
USER_CHARGES


@<TRIPOS>ATOM
      1 C1        -13.3149    1.7512   47.7244 C.3     1  ZINC000588570917   -0.1300
      2 C2        -13.0637    1.2237   49.1135 C.2     1  ZINC000588570917   -0.0500
      3 C3        -13.5014    0.0150   49.4553 C.2     1  ZINC000588570917   -0.2000
      4 C4        -14.2500   -0.8263   48.4539 C.3     1  ZINC000588570917   -0.0900
      5 C5        -15.5657   -1.3041   49.0715 C.3     1  ZINC000588570917   -0.1500
      6 C6        -13.2547   -0.5004   50.8104 C.2     1  ZINC000588570917    0.5600
      7 O7        -13.3029    0.2517   51.7651 O.2     1  ZINC000588570917   -0.5100
      8 N8        -12.9752   -1.8059   50.9944 N.am    1  ZINC000588570917   -0.6800
      9 C9        -12.7406   -2.2960   52.2828 C.ar    1  ZINC000588570917    0.2100
     10 C10       -11.4396   -2.5033   52.7225 C.ar    1  ZINC000588570917   -0.1700
     11 C11       -11.2115   -2.9869   53.9959 C.ar    1  ZINC000588570917    0.0000
     12 C12       -12.2766   -3.2647   54.8328 C.ar    1  ZINC000588570917   -0.7000
     13 S13       -11.9811   -3.8816   56.4566 S.o2    1  ZINC000588570917    2.6900
     14 O14       -13.0536   -4.7660   56.7512 O.2     1  ZINC000588570917   -0.9500
     15 O15       -10.6164   -4.2754   56.4940 O.2     1  ZINC000588570917   -0.9500
     16 N16       -12.1281   -2.6044   57.5005 N.am    1  ZINC000588570917   -1.0000
     17 C17       -13.1284   -2.6194   58.5796 C.3     1  ZINC000588570917    0.0900
     18 C18       -12.4261   -2.2635   59.8949 C.3     1  ZINC000588570917    0.0700
     19 H19       -11.7405   -3.0650   60.1700 H       1  ZINC000588570917    0.0700
     20 C20       -13.4698   -2.0826   60.9989 C.3     1  ZINC000588570917   -0.1500
     21 O21       -11.6948   -1.0471   59.7239 O.3     1  ZINC000588570917   -0.3700
     22 C22       -10.6504   -1.1240   58.7506 C.3     1  ZINC000588570917    0.0800
     23 H23       -10.1167   -0.1743   58.7137 H       1  ZINC000588570917    0.1200
     24 C24        -9.6782   -2.2423   59.1316 C.3     1  ZINC000588570917   -0.1900
     25 C25       -11.2581   -1.4239   57.3802 C.3     1  ZINC000588570917    0.0900
     26 C26       -13.5732   -3.0589   54.3984 C.ar    1  ZINC000588570917    0.0000
     27 C27       -13.8081   -2.5709   53.1279 C.ar    1  ZINC000588570917   -0.1400
     28 H28       -12.8862    2.7490   47.6316 H       1  ZINC000588570917    0.0600
     29 H29       -12.8517    1.0874   46.9945 H       1  ZINC000588570917    0.0800
     30 H30       -14.3886    1.7987   47.5424 H       1  ZINC000588570917    0.0800
     31 H31       -12.5284    1.8272   49.8317 H       1  ZINC000588570917    0.1300
     32 H32       -14.4606   -0.2318   47.5650 H       1  ZINC000588570917    0.0700
     33 H33       -13.6435   -1.6892   48.1787 H       1  ZINC000588570917    0.0800
     34 H34       -16.1723   -0.4412   49.3467 H       1  ZINC000588570917    0.0500
     35 H35       -16.1073   -1.9126   48.3473 H       1  ZINC000588570917    0.0600
     36 H36       -15.3552   -1.8986   49.9606 H       1  ZINC000588570917    0.0600
     37 H37       -12.9368   -2.4056   50.2330 H       1  ZINC000588570917    0.4100
     38 H38       -10.6072   -2.2869   52.0692 H       1  ZINC000588570917    0.1400
     39 H39       -10.2000   -3.1487   54.3382 H       1  ZINC000588570917    0.1400
     40 H40       -13.9066   -1.8858   58.3689 H       1  ZINC000588570917    0.0900
     41 H41       -13.5706   -3.6127   58.6566 H       1  ZINC000588570917    0.1000
     42 H42       -14.0293   -3.0095   61.1254 H       1  ZINC000588570917    0.0700
     43 H43       -12.9698   -1.8297   61.9338 H       1  ZINC000588570917    0.0700
     44 H44       -14.1541   -1.2799   60.7241 H       1  ZINC000588570917    0.0700
     45 H45       -10.2124   -3.1918   59.1665 H       1  ZINC000588570917    0.0600
     46 H46        -8.8823   -2.3003   58.3891 H       1  ZINC000588570917    0.0700
     47 H47        -9.2474   -2.0315   60.1103 H       1  ZINC000588570917    0.0700
     48 H48       -10.4629   -1.6235   56.6619 H       1  ZINC000588570917    0.1000
     49 H49       -11.8495   -0.5713   57.0463 H       1  ZINC000588570917    0.0900
     50 H50       -14.4029   -3.2768   55.0544 H       1  ZINC000588570917    0.1400
     51 H51       -14.8210   -2.4101   52.7893 H       1  ZINC000588570917    0.1500
@<TRIPOS>BOND
     1     1     2    1
     2     1    28    1
     3     1    29    1
     4     1    30    1
     5     2     3    2
     6     2    31    1
     7     3     4    1
     8     3     6    1
     9     4     5    1
    10     4    32    1
    11     4    33    1
    12     5    34    1
    13     5    35    1
    14     5    36    1
    15     6     7    2
    16     6     8   am
    17     8     9    1
    18     8    37    1
    19     9    27   ar
    20     9    10   ar
    21    10    11   ar
    22    10    38    1
    23    11    12   ar
    24    11    39    1
    25    12    13    1
    26    12    26   ar
    27    13    14    2
    28    13    15    2
    29    13    16   am
    30    16    25    1
    31    16    17    1
    32    17    18    1
    33    17    40    1
    34    17    41    1
    35    18    19    1
    36    18    20    1
    37    18    21    1
    38    20    42    1
    39    20    43    1
    40    20    44    1
    41    21    22    1
    42    22    23    1
    43    22    24    1
    44    22    25    1
    45    24    45    1
    46    24    46    1
    47    24    47    1
    48    25    48    1
    49    25    49    1
    50    26    27   ar
    51    26    50    1
    52    27    51    1
@<TRIPOS>SUBSTRUCTURE
     1 ZINC000588570917        1 TEMP              0 ****  ****    0 ROOT


##########                                Name:    ZINC000859202493
##########                DOCK_Rotatable_Bonds:                  11
##########                         Heavy_Atoms:                  25
##########                    Molecular_Weight:             382.404
##########                DOCK_Rotatable_Bonds:                  11
##########                       Formal_Charge:          -0.0200009
##########                     HBond_Acceptors:                  10
##########                        HBond_Donors:                   3
##########                         Heavy_Atoms:                  25
##########                          Grid_Score:          -31.623159
##########                     Grid_vdw_energy:          -31.472860
##########                      Grid_es_energy:           -0.150298
##########           Internal_energy_repulsive:           15.606337

@<TRIPOS>MOLECULE
ZINC000859202493
 46 46 1 0 0
SMALL
USER_CHARGES


@<TRIPOS>ATOM
      1 C1         -9.6337    0.4371   53.9847 C.3     1  ZINC000859202493   -0.1500
      2 C2        -11.0887    0.0202   54.2081 C.3     1  ZINC000859202493   -0.1200
      3 C3        -11.2486   -1.4666   53.8844 C.3     1  ZINC000859202493   -0.1000
      4 H4        -10.5257   -2.0438   54.4608 H       1  ZINC000859202493    0.0700
      5 C5        -11.0068   -1.6923   52.3906 C.3     1  ZINC000859202493   -0.1600
      6 C6        -12.6653   -1.9177   54.2455 C.3     1  ZINC000859202493   -0.1200
      7 C7        -12.6341   -3.3757   54.7082 C.3     1  ZINC000859202493    0.1600
      8 H8        -11.6251   -3.6331   55.0303 H       1  ZINC000859202493    0.1000
      9 C9        -13.0478   -4.2870   53.5508 C.3     1  ZINC000859202493    0.0500
     10 O10       -11.9588   -5.1469   53.2089 O.3     1  ZINC000859202493   -0.5700
     11 N11       -13.5640   -3.5534   55.8260 N.am    1  ZINC000859202493   -1.1000
     12 S12       -13.1593   -4.5435   57.0904 S.o2    1  ZINC000859202493    2.6900
     13 O13       -14.1809   -4.3867   58.0656 O.2     1  ZINC000859202493   -0.9500
     14 O14       -12.8135   -5.7991   56.5220 O.2     1  ZINC000859202493   -0.9500
     15 C15       -11.6843   -3.8983   57.8066 C.ar    1  ZINC000859202493   -0.6600
     16 C16       -10.6149   -4.7375   58.0588 C.ar    1  ZINC000859202493   -0.0300
     17 C17        -9.4556   -4.2351   58.6213 C.ar    1  ZINC000859202493   -0.1100
     18 C18        -9.3628   -2.8929   58.9325 C.ar    1  ZINC000859202493   -0.0600
     19 C19       -10.4352   -2.0472   58.6800 C.ar    1  ZINC000859202493    0.1200
     20 N20       -10.3441   -0.6867   58.9938 N.am    1  ZINC000859202493   -0.6500
     21 C21        -9.6447    0.1437   58.1952 C.2     1  ZINC000859202493    0.4800
     22 O22        -9.0943   -0.2883   57.2046 O.2     1  ZINC000859202493   -0.4500
     23 C23        -9.5467    1.6091   58.5332 C.3     1  ZINC000859202493    0.4600
     24 F24        -8.3324    2.1168   58.0588 F       1  ZINC000859202493   -0.1500
     25 F25       -10.6063    2.2979   57.9334 F       1  ZINC000859202493   -0.1600
     26 F26        -9.6102    1.7728   59.9211 F       1  ZINC000859202493   -0.1600
     27 C27       -11.5958   -2.5537   58.1104 C.ar    1  ZINC000859202493   -0.0300
     28 H28        -9.5197    1.4962   54.2153 H       1  ZINC000859202493    0.0500
     29 H29        -8.9839   -0.1483   54.6354 H       1  ZINC000859202493    0.0500
     30 H30        -9.3606    0.2603   52.9444 H       1  ZINC000859202493    0.0600
     31 H31       -11.3617    0.1969   55.2485 H       1  ZINC000859202493    0.0600
     32 H32       -11.7383    0.6055   53.5575 H       1  ZINC000859202493    0.0600
     33 H33       -11.1208   -2.7515   52.1601 H       1  ZINC000859202493    0.0500
     34 H34       -11.7299   -1.1151   51.8143 H       1  ZINC000859202493    0.0600
     35 H35        -9.9976   -1.3710   52.1334 H       1  ZINC000859202493    0.0600
     36 H36       -13.0530   -1.2901   55.0481 H       1  ZINC000859202493    0.0800
     37 H37       -13.3094   -1.8277   53.3708 H       1  ZINC000859202493    0.0800
     38 H38       -13.9056   -4.8888   53.8509 H       1  ZINC000859202493    0.0600
     39 H39       -13.3152   -3.6784   52.6870 H       1  ZINC000859202493    0.0600
     40 H40       -11.1826   -4.6819   52.8680 H       1  ZINC000859202493    0.3800
     41 H41       -14.4167   -3.0911   55.8258 H       1  ZINC000859202493    0.4200
     42 H42       -10.6850   -5.7875   57.8163 H       1  ZINC000859202493    0.1500
     43 H43        -8.6221   -4.8933   58.8177 H       1  ZINC000859202493    0.1400
     44 H44        -8.4573   -2.5014   59.3721 H       1  ZINC000859202493    0.1400
     45 H45       -10.7845   -0.3411   59.7860 H       1  ZINC000859202493    0.4200
     46 H46       -12.4315   -1.8987   57.9128 H       1  ZINC000859202493    0.1500
@<TRIPOS>BOND
     1     1     2    1
     2     1    28    1
     3     1    29    1
     4     1    30    1
     5     2     3    1
     6     2    31    1
     7     2    32    1
     8     3     4    1
     9     3     5    1
    10     3     6    1
    11     5    33    1
    12     5    34    1
    13     5    35    1
    14     6     7    1
    15     6    36    1
    16     6    37    1
    17     7     8    1
    18     7     9    1
    19     7    11    1
    20     9    10    1
    21     9    38    1
    22     9    39    1
    23    10    40    1
    24    11    12   am
    25    11    41    1
    26    12    13    2
    27    12    14    2
    28    12    15    1
    29    15    27   ar
    30    15    16   ar
    31    16    17   ar
    32    16    42    1
    33    17    18   ar
    34    17    43    1
    35    18    19   ar
    36    18    44    1
    37    19    20    1
    38    19    27   ar
    39    20    21   am
    40    20    45    1
    41    21    22    2
    42    21    23    1
    43    23    24    1
    44    23    25    1
    45    23    26    1
    46    27    46    1
@<TRIPOS>SUBSTRUCTURE
     1 ZINC000859202493        1 TEMP              0 ****  ****    0 ROOT


##########                                Name:    ZINC000898967786
##########                DOCK_Rotatable_Bonds:                   5
##########                         Heavy_Atoms:                  25
##########                    Molecular_Weight:             356.448
##########                DOCK_Rotatable_Bonds:                   5
##########                       Formal_Charge:        -2.38419e-07
##########                     HBond_Acceptors:                   7
##########                        HBond_Donors:                   1
##########                         Heavy_Atoms:                  25
##########                          Grid_Score:          -31.610260
##########                     Grid_vdw_energy:          -31.545246
##########                      Grid_es_energy:           -0.065013
##########           Internal_energy_repulsive:           10.783061

@<TRIPOS>MOLECULE
ZINC000898967786
 45 48 1 0 0
SMALL
USER_CHARGES


@<TRIPOS>ATOM
      1 C1        -10.0589   -4.9825   58.0119 C.3     1  ZINC000898967786   -0.0800
      2 C2        -10.1908   -3.7254   58.8325 C.2     1  ZINC000898967786    0.0900
      3 C3        -11.1899   -2.8212   58.7341 C.2     1  ZINC000898967786   -0.1000
      4 C4        -12.3645   -2.8851   57.7922 C.3     1  ZINC000898967786    0.2200
      5 N5        -12.0094   -2.2424   56.5245 N.am    1  ZINC000898967786   -0.7400
      6 C6        -12.8350   -2.3424   55.4638 C.2     1  ZINC000898967786    0.7100
      7 O7        -13.8744   -2.9660   55.5591 O.2     1  ZINC000898967786   -0.5800
      8 N8        -12.5083   -1.7512   54.2975 N.am    1  ZINC000898967786   -0.6300
      9 C9        -13.3934   -1.8465   53.1259 C.3     1  ZINC000898967786    0.0900
     10 C10       -12.5579   -2.3029   51.9245 C.3     1  ZINC000898967786    0.0500
     11 O11       -11.4188   -1.4493   51.7918 O.3     1  ZINC000898967786   -0.3700
     12 C12       -10.5246   -1.4891   52.9065 C.3     1  ZINC000898967786    0.1400
     13 H13       -10.1866   -2.5131   53.0657 H       1  ZINC000898967786    0.0700
     14 C14        -9.3367   -0.6039   52.6308 C.2     1  ZINC000898967786   -0.1100
     15 C15        -9.3315    0.6992   52.9156 C.2     1  ZINC000898967786   -0.1800
     16 S16        -7.7840    1.3973   52.4561 S.3     1  ZINC000898967786    0.1100
     17 C17        -7.2141   -0.1660   51.8861 C.2     1  ZINC000898967786   -0.2100
     18 C18        -8.1661   -1.0826   52.0680 C.2     1  ZINC000898967786   -0.1300
     19 C19       -11.2587   -0.9862   54.1599 C.3     1  ZINC000898967786    0.0900
     20 N20       -10.9358   -1.8369   59.6500 N.pl3   1  ZINC000898967786   -0.3500
     21 C21       -11.5998   -0.6919   59.9831 C.2     1  ZINC000898967786    0.0600
     22 C22       -11.1220    0.1243   60.9457 C.2     1  ZINC000898967786   -0.1400
     23 C23        -9.9311   -0.1950   61.6189 C.2     1  ZINC000898967786   -0.1000
     24 C24        -9.2593   -1.3330   61.2967 C.2     1  ZINC000898967786   -0.0800
     25 C25        -9.7715   -2.1753   60.2894 C.2     1  ZINC000898967786    0.2400
     26 N26        -9.3430   -3.3224   59.7819 N.2     1  ZINC000898967786   -0.4900
     27 H27       -10.5693   -5.8019   58.5180 H       1  ZINC000898967786    0.0800
     28 H28       -10.5079   -4.8250   57.0313 H       1  ZINC000898967786    0.0700
     29 H29        -9.0040   -5.2297   57.8931 H       1  ZINC000898967786    0.0800
     30 H30       -12.6280   -3.9270   57.6101 H       1  ZINC000898967786    0.1000
     31 H31       -13.2149   -2.3675   58.2363 H       1  ZINC000898967786    0.0700
     32 H32       -11.1802   -1.7450   56.4485 H       1  ZINC000898967786    0.4000
     33 H33       -14.1833   -2.5719   53.3206 H       1  ZINC000898967786    0.1100
     34 H34       -13.8333   -0.8711   52.9179 H       1  ZINC000898967786    0.0800
     35 H35       -12.2272   -3.3298   52.0801 H       1  ZINC000898967786    0.0600
     36 H36       -13.1619   -2.2475   51.0188 H       1  ZINC000898967786    0.1100
     37 H37       -10.1522    1.2427   53.3601 H       1  ZINC000898967786    0.1700
     38 H38        -6.2407   -0.3558   51.4586 H       1  ZINC000898967786    0.1700
     39 H39        -8.0363   -2.1179   51.7899 H       1  ZINC000898967786    0.1400
     40 H40       -11.4817    0.0754   54.0536 H       1  ZINC000898967786    0.0800
     41 H41       -10.6345   -1.1445   55.0393 H       1  ZINC000898967786    0.0900
     42 H42       -12.5160   -0.4367   59.4714 H       1  ZINC000898967786    0.1600
     43 H43       -11.6575    1.0272   61.1996 H       1  ZINC000898967786    0.1500
     44 H44        -9.5505    0.4603   62.3883 H       1  ZINC000898967786    0.1500
     45 H45        -8.3426   -1.5884   61.8073 H       1  ZINC000898967786    0.1500
@<TRIPOS>BOND
     1     1     2    1
     2     1    27    1
     3     1    28    1
     4     1    29    1
     5     2    26    1
     6     2     3    2
     7     3     4    1
     8     3    20    1
     9     4     5    1
    10     4    30    1
    11     4    31    1
    12     5     6   am
    13     5    32    1
    14     6     7    2
    15     6     8   am
    16     8    19    1
    17     8     9    1
    18     9    10    1
    19     9    33    1
    20     9    34    1
    21    10    11    1
    22    10    35    1
    23    10    36    1
    24    11    12    1
    25    12    13    1
    26    12    14    1
    27    12    19    1
    28    14    18    1
    29    14    15    2
    30    15    16    1
    31    15    37    1
    32    16    17    1
    33    17    18    2
    34    17    38    1
    35    18    39    1
    36    19    40    1
    37    19    41    1
    38    20    25    1
    39    20    21    1
    40    21    22    2
    41    21    42    1
    42    22    23    1
    43    22    43    1
    44    23    24    2
    45    23    44    1
    46    24    25    1
    47    24    45    1
    48    25    26    2
@<TRIPOS>SUBSTRUCTURE
     1 ZINC000898967786        1 TEMP              0 ****  ****    0 ROOT


##########                                Name:    ZINC000899027326
##########                DOCK_Rotatable_Bonds:                   5
##########                         Heavy_Atoms:                  22
##########                    Molecular_Weight:             346.169
##########                DOCK_Rotatable_Bonds:                   5
##########                       Formal_Charge:           0.0300005
##########                     HBond_Acceptors:                   9
##########                        HBond_Donors:                   1
##########                         Heavy_Atoms:                  22
##########                          Grid_Score:          -31.551178
##########                     Grid_vdw_energy:          -30.557972
##########                      Grid_es_energy:           -0.993205
##########           Internal_energy_repulsive:           20.003386

@<TRIPOS>MOLECULE
ZINC000899027326
 35 36 1 0 0
SMALL
USER_CHARGES


@<TRIPOS>ATOM
      1 C1        -14.2439   -5.3005   56.4965 C.3     1  ZINC000899027326   -0.1500
      2 C2        -13.5246   -4.0077   56.1060 C.3     1  ZINC000899027326    0.1100
      3 H3        -14.2296   -3.2896   55.6870 H       1  ZINC000899027326    0.1400
      4 C4        -12.8067   -3.4146   57.3020 C.2     1  ZINC000899027326    0.5300
      5 O5        -13.3046   -3.0313   58.3388 O.2     1  ZINC000899027326   -0.4500
      6 N6        -11.4998   -3.4028   56.9733 N.am    1  ZINC000899027326   -0.3700
      7 N7        -10.4819   -2.9284   57.8110 N.am    1  ZINC000899027326   -0.5000
      8 C8         -9.9404   -3.7407   58.7402 C.2     1  ZINC000899027326    0.5200
      9 O9        -10.3334   -4.8828   58.8503 O.2     1  ZINC000899027326   -0.4800
     10 C10        -8.8468   -3.2299   59.6424 C.3     1  ZINC000899027326    0.0500
     11 O11        -9.3736   -2.2193   60.5045 O.3     1  ZINC000899027326   -0.2700
     12 C12        -9.3333   -0.9385   60.0508 C.ar    1  ZINC000899027326    0.1400
     13 C13        -8.9073   -0.6729   58.7583 C.ar    1  ZINC000899027326   -0.1900
     14 C14        -8.8670    0.6298   58.2986 C.ar    1  ZINC000899027326   -0.0600
     15 C15        -9.2509    1.6690   59.1269 C.ar    1  ZINC000899027326   -0.0600
     16 Cl16       -9.1997    3.3043   58.5463 Cl      1  ZINC000899027326   -0.0500
     17 C17        -9.6765    1.4070   60.4174 C.ar    1  ZINC000899027326   -0.0600
     18 C18        -9.7239    0.1052   60.8791 C.ar    1  ZINC000899027326   -0.0500
     19 Cl19      -10.2578   -0.2237   62.4980 Cl      1  ZINC000899027326   -0.0300
     20 C20       -11.2944   -3.9008   55.7486 C.2     1  ZINC000899027326    0.7000
     21 O21       -10.1981   -3.9933   55.2322 O.2     1  ZINC000899027326   -0.5200
     22 N22       -12.4394   -4.2869   55.1498 N.am    1  ZINC000899027326   -0.6200
     23 C23       -12.5741   -4.8721   53.8135 C.3     1  ZINC000899027326    0.1200
     24 H24       -13.5262   -6.0005   56.9242 H       1  ZINC000899027326    0.0700
     25 H25       -15.0171   -5.0781   57.2317 H       1  ZINC000899027326    0.0900
     26 H26       -14.7006   -5.7437   55.6116 H       1  ZINC000899027326    0.0900
     27 H27       -10.1668   -2.0153   57.7222 H       1  ZINC000899027326    0.4300
     28 H28        -8.4569   -4.0522   60.2423 H       1  ZINC000899027326    0.1100
     29 H29        -8.0437   -2.8089   59.0374 H       1  ZINC000899027326    0.1100
     30 H30        -8.6070   -1.4837   58.1111 H       1  ZINC000899027326    0.1500
     31 H31        -8.5348    0.8366   57.2921 H       1  ZINC000899027326    0.1500
     32 H32        -9.9760    2.2197   61.0625 H       1  ZINC000899027326    0.1500
     33 H33       -11.5899   -4.9558   53.3526 H       1  ZINC000899027326    0.0900
     34 H34       -13.0229   -5.8621   53.8940 H       1  ZINC000899027326    0.0700
     35 H35       -13.2097   -4.2339   53.1997 H       1  ZINC000899027326    0.0700
@<TRIPOS>BOND
     1     1     2    1
     2     1    24    1
     3     1    25    1
     4     1    26    1
     5     2     3    1
     6     2    22    1
     7     2     4    1
     8     4     5    2
     9     4     6   am
    10     6     7    1
    11     6    20   am
    12     7     8   am
    13     7    27    1
    14     8     9    2
    15     8    10    1
    16    10    11    1
    17    10    28    1
    18    10    29    1
    19    11    12    1
    20    12    18   ar
    21    12    13   ar
    22    13    14   ar
    23    13    30    1
    24    14    15   ar
    25    14    31    1
    26    15    16    1
    27    15    17   ar
    28    17    18   ar
    29    17    32    1
    30    18    19    1
    31    20    21    2
    32    20    22   am
    33    22    23    1
    34    23    33    1
    35    23    34    1
    36    23    35    1
@<TRIPOS>SUBSTRUCTURE
     1 ZINC000899027326        1 TEMP              0 ****  ****    0 ROOT


##########                                Name:    ZINC000469459940
##########                DOCK_Rotatable_Bonds:                   7
##########                         Heavy_Atoms:                  24
##########                    Molecular_Weight:             414.295
##########                DOCK_Rotatable_Bonds:                   7
##########                       Formal_Charge:          -0.0200002
##########                     HBond_Acceptors:                   6
##########                        HBond_Donors:                   1
##########                         Heavy_Atoms:                  24
##########                          Grid_Score:          -31.526283
##########                     Grid_vdw_energy:          -30.499784
##########                      Grid_es_energy:           -1.026499
##########           Internal_energy_repulsive:            5.133847

@<TRIPOS>MOLECULE
ZINC000469459940
 41 42 1 0 0
SMALL
USER_CHARGES


@<TRIPOS>ATOM
      1 C1         -3.8355    1.9503   64.8440 C.3     1  ZINC000469459940   -0.1600
      2 C2         -5.1612    2.6550   65.1387 C.3     1  ZINC000469459940   -0.1200
      3 C3         -6.2799    1.6161   65.2386 C.3     1  ZINC000469459940   -0.1200
      4 C4         -7.6058    2.3210   65.5319 C.3     1  ZINC000469459940   -0.6000
      5 S5         -8.9295    1.0880   65.6656 S.o2    1  ZINC000469459940    2.4900
      6 O6         -8.4929   -0.0324   66.4227 O.2     1  ZINC000469459940   -0.9300
      7 O7        -10.1726    1.7187   65.9412 O.2     1  ZINC000469459940   -0.9300
      8 C8         -9.1137    0.4614   64.0290 C.ar    1  ZINC000469459940   -0.6400
      9 C9         -8.5715   -0.7675   63.6970 C.ar    1  ZINC000469459940   -0.0300
     10 C10        -8.7118   -1.2637   62.4174 C.ar    1  ZINC000469459940   -0.0800
     11 C11        -9.4028   -0.5231   61.4569 C.ar    1  ZINC000469459940   -0.0900
     12 C12        -9.5574   -1.0487   60.0840 C.2     1  ZINC000469459940    0.5600
     13 O13        -8.6001   -1.5214   59.5028 O.2     1  ZINC000469459940   -0.5000
     14 N14       -10.7597   -1.0036   59.4766 N.am    1  ZINC000469459940   -0.6700
     15 C15       -10.9060   -1.5011   58.1774 C.ar    1  ZINC000469459940    0.1900
     16 C16       -11.2581   -2.8294   57.9770 C.ar    1  ZINC000469459940   -0.1500
     17 C17       -11.4021   -3.3193   56.6934 C.ar    1  ZINC000469459940   -0.0400
     18 C18       -11.1958   -2.4886   55.6070 C.ar    1  ZINC000469459940   -0.1500
     19 Br19      -11.3940   -3.1633   53.8516 Br      1  ZINC000469459940   -0.0200
     20 C20       -10.8441   -1.1623   55.8030 C.ar    1  ZINC000469459940    0.1500
     21 F21       -10.6430   -0.3528   54.7403 F       1  ZINC000469459940   -0.1200
     22 C22       -10.7048   -0.6659   57.0863 C.ar    1  ZINC000469459940   -0.1500
     23 C23        -9.9477    0.7158   61.7987 C.ar    1  ZINC000469459940   -0.1100
     24 C24        -9.8047    1.1980   63.0833 C.ar    1  ZINC000469459940   -0.0300
     25 H25        -3.6100    1.2496   65.6480 H       1  ZINC000469459940    0.0600
     26 H26        -3.9137    1.4086   63.9014 H       1  ZINC000469459940    0.0600
     27 H27        -3.0385    2.6903   64.7728 H       1  ZINC000469459940    0.0600
     28 H28        -5.0831    3.1966   66.0813 H       1  ZINC000469459940    0.0700
     29 H29        -5.3867    3.3555   64.3347 H       1  ZINC000469459940    0.0700
     30 H30        -6.3575    1.0738   64.2963 H       1  ZINC000469459940    0.0800
     31 H31        -6.0548    0.9160   66.0432 H       1  ZINC000469459940    0.0800
     32 H32        -7.5254    2.8708   66.4696 H       1  ZINC000469459940    0.1400
     33 H33        -7.8355    3.0143   64.7228 H       1  ZINC000469459940    0.1400
     34 H34        -8.0372   -1.3394   64.4411 H       1  ZINC000469459940    0.1500
     35 H35        -8.2875   -2.2227   62.1593 H       1  ZINC000469459940    0.1500
     36 H36       -11.5235   -0.6264   59.9403 H       1  ZINC000469459940    0.4200
     37 H37       -11.4190   -3.4793   58.8243 H       1  ZINC000469459940    0.1500
     38 H38       -11.6761   -4.3523   56.5379 H       1  ZINC000469459940    0.1500
     39 H39       -10.4310    0.3675   57.2395 H       1  ZINC000469459940    0.1600
     40 H40       -10.4832    1.2938   61.0601 H       1  ZINC000469459940    0.1400
     41 H41       -10.2257    2.1564   63.3490 H       1  ZINC000469459940    0.1500
@<TRIPOS>BOND
     1     1     2    1
     2     1    25    1
     3     1    26    1
     4     1    27    1
     5     2     3    1
     6     2    28    1
     7     2    29    1
     8     3     4    1
     9     3    30    1
    10     3    31    1
    11     4     5    1
    12     4    32    1
    13     4    33    1
    14     5     6    2
    15     5     7    2
    16     5     8    1
    17     8    24   ar
    18     8     9   ar
    19     9    10   ar
    20     9    34    1
    21    10    11   ar
    22    10    35    1
    23    11    12    1
    24    11    23   ar
    25    12    13    2
    26    12    14   am
    27    14    15    1
    28    14    36    1
    29    15    22   ar
    30    15    16   ar
    31    16    17   ar
    32    16    37    1
    33    17    18   ar
    34    17    38    1
    35    18    19    1
    36    18    20   ar
    37    20    21    1
    38    20    22   ar
    39    22    39    1
    40    23    24   ar
    41    23    40    1
    42    24    41    1
@<TRIPOS>SUBSTRUCTURE
     1 ZINC000469459940        1 TEMP              0 ****  ****    0 ROOT


##########                                Name:    ZINC001193456967
##########                DOCK_Rotatable_Bonds:                   3
##########                         Heavy_Atoms:                  27
##########                    Molecular_Weight:             392.451
##########                DOCK_Rotatable_Bonds:                   3
##########                       Formal_Charge:           0.0300002
##########                     HBond_Acceptors:                   8
##########                        HBond_Donors:                   0
##########                         Heavy_Atoms:                  27
##########                          Grid_Score:          -31.484602
##########                     Grid_vdw_energy:          -31.151476
##########                      Grid_es_energy:           -0.333126
##########           Internal_energy_repulsive:           36.841820

@<TRIPOS>MOLECULE
ZINC001193456967
 48 50 1 0 0
SMALL
USER_CHARGES


@<TRIPOS>ATOM
      1 C1         -8.4000   -2.8445   59.8837 C.3     1  ZINC001193456967   -0.1400
      2 C2         -9.5327   -3.0733   58.9165 C.ar    1  ZINC001193456967    0.0300
      3 C3         -9.8527   -4.3576   58.5181 C.ar    1  ZINC001193456967   -0.1400
      4 C4        -10.8918   -4.5674   57.6307 C.ar    1  ZINC001193456967    0.0300
      5 C5        -11.6109   -3.4930   57.1421 C.ar    1  ZINC001193456967   -0.6900
      6 S6        -12.9349   -3.7603   56.0106 S.o2    1  ZINC001193456967    2.7100
      7 O7        -13.0912   -5.1684   55.9012 O.2     1  ZINC001193456967   -0.9300
      8 O8        -13.9854   -2.8905   56.4096 O.2     1  ZINC001193456967   -0.9400
      9 N9        -12.4264   -3.2294   54.5268 N.am    1  ZINC001193456967   -1.0000
     10 C10       -11.2631   -3.7448   53.7821 C.3     1  ZINC001193456967    0.1100
     11 C11       -10.8499   -2.5861   52.8406 C.3     1  ZINC001193456967   -0.1200
     12 C12       -12.2305   -2.0002   52.4433 C.3     1  ZINC001193456967   -0.0500
     13 H13       -12.6705   -2.5704   51.6251 H       1  ZINC001193456967    0.1000
     14 C14       -12.1049   -0.5457   52.0696 C.ar    1  ZINC001193456967   -0.0800
     15 C15       -11.2323    0.2727   52.7625 C.ar    1  ZINC001193456967   -0.0800
     16 C16       -11.1163    1.6066   52.4207 C.ar    1  ZINC001193456967   -0.1500
     17 C17       -11.8741    2.1235   51.3836 C.ar    1  ZINC001193456967    0.1000
     18 F18       -11.7611    3.4273   51.0483 F       1  ZINC001193456967   -0.1400
     19 C19       -12.7474    1.3029   50.6900 C.ar    1  ZINC001193456967   -0.1500
     20 C20       -12.8581   -0.0319   51.0304 C.ar    1  ZINC001193456967   -0.0800
     21 C21       -13.0642   -2.1705   53.7309 C.3     1  ZINC001193456967    0.1900
     22 C22       -14.4974   -2.5697   53.3738 C.3     1  ZINC001193456967   -0.1800
     23 C23       -13.0678   -0.8628   54.5252 C.3     1  ZINC001193456967   -0.1800
     24 C24       -11.2918   -2.2084   57.5415 C.ar    1  ZINC001193456967    0.0400
     25 C25       -10.2554   -1.9989   58.4317 C.ar    1  ZINC001193456967   -0.0600
     26 N26        -9.9136   -0.6237   58.8593 N.pl3   1  ZINC001193456967    0.0200
     27 O27        -9.5674   -0.4113   60.0076 O.2     1  ZINC001193456967   -0.1400
     28 O28        -9.9786    0.2955   58.0629 O.2     1  ZINC001193456967   -0.1500
     29 H29        -8.7958   -2.7755   60.8970 H       1  ZINC001193456967    0.1100
     30 H30        -7.6976   -3.6759   59.8240 H       1  ZINC001193456967    0.0900
     31 H31        -7.8873   -1.9167   59.6300 H       1  ZINC001193456967    0.0800
     32 H32        -9.2907   -5.1971   58.9000 H       1  ZINC001193456967    0.1600
     33 H33       -11.1414   -5.5709   57.3190 H       1  ZINC001193456967    0.1600
     34 H34       -10.4502   -3.9850   54.4673 H       1  ZINC001193456967    0.0900
     35 H35       -11.5432   -4.6237   53.2015 H       1  ZINC001193456967    0.0700
     36 H36       -10.2498   -1.8466   53.3711 H       1  ZINC001193456967    0.0900
     37 H37       -10.3193   -2.9633   51.9664 H       1  ZINC001193456967    0.0900
     38 H38       -10.6413   -0.1307   53.5715 H       1  ZINC001193456967    0.1400
     39 H39       -10.4350    2.2459   52.9627 H       1  ZINC001193456967    0.1400
     40 H40       -13.3392    1.7051   49.8810 H       1  ZINC001193456967    0.1400
     41 H41       -13.5390   -0.6723   50.4894 H       1  ZINC001193456967    0.1300
     42 H42       -14.4862   -3.5116   52.8254 H       1  ZINC001193456967    0.0700
     43 H43       -15.0798   -2.6881   54.2875 H       1  ZINC001193456967    0.0600
     44 H44       -14.9470   -1.7938   52.7543 H       1  ZINC001193456967    0.0800
     45 H45       -13.4022   -0.0483   53.8826 H       1  ZINC001193456967    0.0800
     46 H46       -13.7436   -0.9559   55.3752 H       1  ZINC001193456967    0.0900
     47 H47       -12.0600   -0.6527   54.8836 H       1  ZINC001193456967    0.0700
     48 H48       -11.8539   -1.3689   57.1600 H       1  ZINC001193456967    0.1600
@<TRIPOS>BOND
     1     1     2    1
     2     1    29    1
     3     1    30    1
     4     1    31    1
     5     2    25   ar
     6     2     3   ar
     7     3     4   ar
     8     3    32    1
     9     4     5   ar
    10     4    33    1
    11     5     6    1
    12     5    24   ar
    13     6     7    2
    14     6     8    2
    15     6     9   am
    16     9    21    1
    17     9    10    1
    18    10    11    1
    19    10    34    1
    20    10    35    1
    21    11    12    1
    22    11    36    1
    23    11    37    1
    24    12    13    1
    25    12    14    1
    26    12    21    1
    27    14    20   ar
    28    14    15   ar
    29    15    16   ar
    30    15    38    1
    31    16    17   ar
    32    16    39    1
    33    17    18    1
    34    17    19   ar
    35    19    20   ar
    36    19    40    1
    37    20    41    1
    38    21    22    1
    39    21    23    1
    40    22    42    1
    41    22    43    1
    42    22    44    1
    43    23    45    1
    44    23    46    1
    45    23    47    1
    46    24    25   ar
    47    24    48    1
    48    25    26    1
    49    26    27    2
    50    26    28    2
@<TRIPOS>SUBSTRUCTURE
     1 ZINC001193456967        1 TEMP              0 ****  ****    0 ROOT


##########                                Name:    ZINC000281092425
##########                DOCK_Rotatable_Bonds:                   8
##########                         Heavy_Atoms:                  23
##########                    Molecular_Weight:             332.304
##########                DOCK_Rotatable_Bonds:                   8
##########                       Formal_Charge:         2.98023e-08
##########                     HBond_Acceptors:                   9
##########                        HBond_Donors:                   2
##########                         Heavy_Atoms:                  23
##########                          Grid_Score:          -31.477774
##########                     Grid_vdw_energy:          -26.932604
##########                      Grid_es_energy:           -4.545170
##########           Internal_energy_repulsive:           21.741865

@<TRIPOS>MOLECULE
ZINC000281092425
 41 42 1 0 0
SMALL
USER_CHARGES


@<TRIPOS>ATOM
      1 O1         -9.1864   -3.7884   58.9589 O.2     1  ZINC000281092425   -0.1800
      2 N2         -9.5949   -2.6433   58.8850 N.pl3   1  ZINC000281092425    0.0400
      3 O3        -10.1338   -2.2536   57.8646 O.2     1  ZINC000281092425   -0.1500
      4 C4         -9.4417   -1.7271   60.0373 C.ar    1  ZINC000281092425   -0.1200
      5 C5         -8.8301   -2.1701   61.1944 C.ar    1  ZINC000281092425    0.0200
      6 C6         -8.6853   -1.3181   62.2722 C.ar    1  ZINC000281092425   -0.2200
      7 C7         -9.1543   -0.0126   62.1945 C.ar    1  ZINC000281092425    0.3000
      8 N8         -9.0077    0.8492   63.2838 N.pl3   1  ZINC000281092425   -0.7200
      9 C9         -9.9745    0.8102   64.3839 C.3     1  ZINC000281092425    0.1200
     10 C10        -9.2307    0.8797   65.7192 C.3     1  ZINC000281092425   -0.0900
     11 H11        -9.9439    0.7836   66.5378 H       1  ZINC000281092425    0.0900
     12 C12        -8.2110   -0.2584   65.7948 C.3     1  ZINC000281092425    0.0800
     13 O13        -7.7619   -0.4067   67.1432 O.3     1  ZINC000281092425   -0.5700
     14 C14        -8.5056    2.2224   65.8297 C.3     1  ZINC000281092425   -0.1100
     15 H15        -7.8304    2.3673   64.9862 H       1  ZINC000281092425    0.0900
     16 C16        -9.5215    3.3926   65.9317 C.3     1  ZINC000281092425   -0.1600
     17 C17        -8.6925    4.4335   66.7257 C.3     1  ZINC000281092425    0.0500
     18 O18        -7.9201    3.6635   67.6604 O.3     1  ZINC000281092425   -0.3900
     19 C19        -7.7431    2.3265   67.1680 C.3     1  ZINC000281092425    0.0700
     20 C20        -9.7688    0.4341   61.0325 C.ar    1  ZINC000281092425   -0.2800
     21 C21        -9.9077   -0.4223   59.9520 C.ar    1  ZINC000281092425    0.2300
     22 O22       -10.5082    0.0121   58.8129 O.3     1  ZINC000281092425   -0.2900
     23 C23        -9.9063    1.1230   58.1453 C.3     1  ZINC000281092425    0.4100
     24 F24        -8.5362    0.8867   57.9891 F       1  ZINC000281092425   -0.1900
     25 F25       -10.4974    1.2876   56.8880 F       1  ZINC000281092425   -0.1900
     26 H26        -8.4649   -3.1846   61.2564 H       1  ZINC000281092425    0.1600
     27 H27        -8.2075   -1.6670   63.1757 H       1  ZINC000281092425    0.1500
     28 H28        -8.2659    1.4734   63.3120 H       1  ZINC000281092425    0.4100
     29 H29       -10.6531    1.6592   64.3014 H       1  ZINC000281092425    0.0800
     30 H30       -10.5449   -0.1172   64.3335 H       1  ZINC000281092425    0.0800
     31 H31        -8.6768   -1.1862   65.4628 H       1  ZINC000281092425    0.0500
     32 H32        -7.3612   -0.0282   65.1521 H       1  ZINC000281092425    0.0500
     33 H33        -7.3361    0.3824   67.5050 H       1  ZINC000281092425    0.3800
     34 H34        -9.7853    3.7711   64.9441 H       1  ZINC000281092425    0.0800
     35 H35       -10.4110    3.0934   66.4862 H       1  ZINC000281092425    0.0800
     36 H36        -8.0341    4.9844   66.0541 H       1  ZINC000281092425    0.0600
     37 H37        -9.3537    5.1192   67.2553 H       1  ZINC000281092425    0.0900
     38 H38        -8.1542    1.6122   67.8813 H       1  ZINC000281092425    0.0800
     39 H39        -6.6827    2.1270   67.0126 H       1  ZINC000281092425    0.0700
     40 H40       -10.1342    1.4485   60.9694 H       1  ZINC000281092425    0.1500
     41 H41       -10.0541    2.0262   58.7373 H       1  ZINC000281092425    0.1900
@<TRIPOS>BOND
     1     1     2    2
     2     2     3    2
     3     2     4    1
     4     4    21   ar
     5     4     5   ar
     6     5     6   ar
     7     5    26    1
     8     6     7   ar
     9     6    27    1
    10     7     8    1
    11     7    20   ar
    12     8     9    1
    13     8    28    1
    14     9    10    1
    15     9    29    1
    16     9    30    1
    17    10    11    1
    18    10    12    1
    19    10    14    1
    20    12    13    1
    21    12    31    1
    22    12    32    1
    23    13    33    1
    24    14    15    1
    25    14    19    1
    26    14    16    1
    27    16    17    1
    28    16    34    1
    29    16    35    1
    30    17    18    1
    31    17    36    1
    32    17    37    1
    33    18    19    1
    34    19    38    1
    35    19    39    1
    36    20    21   ar
    37    20    40    1
    38    21    22    1
    39    22    23    1
    40    23    24    1
    41    23    25    1
    42    23    41    1
@<TRIPOS>SUBSTRUCTURE
     1 ZINC000281092425        1 TEMP              0 ****  ****    0 ROOT


##########                                Name:    ZINC000811540126
##########                DOCK_Rotatable_Bonds:                   7
##########                         Heavy_Atoms:                  21
##########                    Molecular_Weight:             397.212
##########                DOCK_Rotatable_Bonds:                   7
##########                       Formal_Charge:           0.0100001
##########                     HBond_Acceptors:                   4
##########                        HBond_Donors:                   3
##########                         Heavy_Atoms:                  21
##########                          Grid_Score:          -31.466171
##########                     Grid_vdw_energy:          -29.768017
##########                      Grid_es_energy:           -1.698154
##########           Internal_energy_repulsive:           12.645682

@<TRIPOS>MOLECULE
ZINC000811540126
 37 38 1 0 0
SMALL
USER_CHARGES


@<TRIPOS>ATOM
      1 C1        -11.7151   -1.7586   60.8801 C.3     1  ZINC000811540126   -0.1600
      2 C2        -10.9277   -2.7344   60.0033 C.3     1  ZINC000811540126    0.1200
      3 H3        -10.9068   -3.7148   60.4792 H       1  ZINC000811540126    0.1000
      4 N4        -11.5720   -2.8416   58.6919 N.am    1  ZINC000811540126   -0.7200
      5 C5        -11.3333   -3.9128   57.9095 C.2     1  ZINC000811540126    0.5700
      6 O6        -10.5822   -4.7894   58.2914 O.2     1  ZINC000811540126   -0.5100
      7 C7        -11.9835   -4.0217   56.5897 C.ar    1  ZINC000811540126   -0.1600
      8 C8        -11.4544   -3.3453   55.4881 C.ar    1  ZINC000811540126   -0.0400
      9 C9        -12.0669   -3.4512   54.2574 C.ar    1  ZINC000811540126   -0.1200
     10 I10       -11.2722   -2.4360   52.6061 I       1  ZINC000811540126   -0.0300
     11 C11       -13.2055   -4.2265   54.1078 C.ar    1  ZINC000811540126   -0.0400
     12 C12       -13.7389   -4.8999   55.1890 C.ar    1  ZINC000811540126   -0.1500
     13 C13       -13.1325   -4.8092   56.4327 C.ar    1  ZINC000811540126    0.1900
     14 O14       -13.6552   -5.4707   57.4955 O.3     1  ZINC000811540126   -0.4700
     15 C15        -9.4968   -2.2219   59.8281 C.3     1  ZINC000811540126    0.1400
     16 H16        -8.9554   -2.8807   59.1492 H       1  ZINC000811540126    0.1300
     17 O17        -8.8395   -2.2009   61.0968 O.3     1  ZINC000811540126   -0.5400
     18 C18        -9.5290   -0.8280   59.2561 C.ar    1  ZINC000811540126   -0.1200
     19 C19        -9.5385    0.2658   60.1011 C.ar    1  ZINC000811540126   -0.1100
     20 C20        -9.5681    1.5444   59.5765 C.ar    1  ZINC000811540126   -0.1100
     21 C21        -9.5877    1.7291   58.2066 C.ar    1  ZINC000811540126   -0.1200
     22 C22        -9.5774    0.6352   57.3615 C.ar    1  ZINC000811540126   -0.1100
     23 C23        -9.5435   -0.6433   57.8862 C.ar    1  ZINC000811540126   -0.1100
     24 H24       -12.7345   -2.1236   61.0050 H       1  ZINC000811540126    0.0600
     25 H25       -11.2357   -1.6788   61.8557 H       1  ZINC000811540126    0.0700
     26 H26       -11.7359   -0.7782   60.4043 H       1  ZINC000811540126    0.0700
     27 H27       -12.1703   -2.1418   58.3868 H       1  ZINC000811540126    0.3900
     28 H28       -10.5671   -2.7399   55.6003 H       1  ZINC000811540126    0.1300
     29 H29       -13.6788   -4.3043   53.1403 H       1  ZINC000811540126    0.1400
     30 H30       -14.6268   -5.5020   55.0647 H       1  ZINC000811540126    0.1500
     31 H31       -13.0574   -5.5329   58.2530 H       1  ZINC000811540126    0.4000
     32 H32        -7.9396   -1.8483   61.0677 H       1  ZINC000811540126    0.3700
     33 H33        -9.5231    0.1216   61.1713 H       1  ZINC000811540126    0.1100
     34 H34        -9.5761    2.3991   60.2367 H       1  ZINC000811540126    0.1200
     35 H35        -9.6116    2.7280   57.7967 H       1  ZINC000811540126    0.1200
     36 H36        -9.5931    0.7795   56.2912 H       1  ZINC000811540126    0.1300
     37 H37        -9.5354   -1.4979   57.2259 H       1  ZINC000811540126    0.1200
@<TRIPOS>BOND
     1     1     2    1
     2     1    24    1
     3     1    25    1
     4     1    26    1
     5     2     3    1
     6     2     4    1
     7     2    15    1
     8     4     5   am
     9     4    27    1
    10     5     6    2
    11     5     7    1
    12     7    13   ar
    13     7     8   ar
    14     8     9   ar
    15     8    28    1
    16     9    10    1
    17     9    11   ar
    18    11    12   ar
    19    11    29    1
    20    12    13   ar
    21    12    30    1
    22    13    14    1
    23    14    31    1
    24    15    16    1
    25    15    17    1
    26    15    18    1
    27    17    32    1
    28    18    23   ar
    29    18    19   ar
    30    19    20   ar
    31    19    33    1
    32    20    21   ar
    33    20    34    1
    34    21    22   ar
    35    21    35    1
    36    22    23   ar
    37    22    36    1
    38    23    37    1
@<TRIPOS>SUBSTRUCTURE
     1 ZINC000811540126        1 TEMP              0 ****  ****    0 ROOT


##########                                Name:    ZINC000523153175
##########                DOCK_Rotatable_Bonds:                   9
##########                         Heavy_Atoms:                  30
##########                    Molecular_Weight:             413.603
##########                DOCK_Rotatable_Bonds:                   9
##########                       Formal_Charge:           0.0499987
##########                     HBond_Acceptors:                   5
##########                        HBond_Donors:                   1
##########                         Heavy_Atoms:                  30
##########                          Grid_Score:          -31.462471
##########                     Grid_vdw_energy:          -31.258015
##########                      Grid_es_energy:           -0.204456
##########           Internal_energy_repulsive:           32.255608

@<TRIPOS>MOLECULE
ZINC000523153175
 69 71 1 0 0
SMALL
USER_CHARGES


@<TRIPOS>ATOM
      1 C1        -15.2380    3.0944   51.4691 C.3     1  ZINC000523153175   -0.1500
      2 C2        -14.9612    1.9157   50.5336 C.3     1  ZINC000523153175   -0.0600
      3 C3        -14.2059    2.4110   49.2988 C.3     1  ZINC000523153175   -0.1400
      4 C4        -14.1271    0.8879   51.2540 C.ar    1  ZINC000523153175   -0.0800
      5 C5        -14.5474   -0.4278   51.3094 C.ar    1  ZINC000523153175   -0.1100
      6 C6        -13.7823   -1.3706   51.9701 C.ar    1  ZINC000523153175   -0.1100
      7 C7        -12.5966   -0.9977   52.5752 C.ar    1  ZINC000523153175   -0.0800
      8 C8        -11.7627   -2.0255   53.2960 C.3     1  ZINC000523153175   -0.0300
      9 H9        -12.3103   -2.9665   53.3472 H       1  ZINC000523153175    0.0800
     10 C10       -10.4505   -2.2395   52.5389 C.3     1  ZINC000523153175   -0.1500
     11 C11       -11.4598   -1.5338   54.7127 C.3     1  ZINC000523153175   -0.1300
     12 C12       -11.0132   -2.6952   55.5627 C.2     1  ZINC000523153175    0.5200
     13 O13       -11.1654   -3.8311   55.1659 O.2     1  ZINC000523153175   -0.5300
     14 N14       -10.4445   -2.4718   56.7641 N.am    1  ZINC000523153175   -0.6200
     15 C15       -10.2577   -1.1026   57.2679 C.3     1  ZINC000523153175    0.1100
     16 C16       -10.8369   -1.0218   58.6842 C.3     1  ZINC000523153175    0.0400
     17 N17       -10.2400   -2.0762   59.5149 N.3     1  ZINC000523153175   -0.5100
     18 C18       -10.6380   -1.9271   60.9211 C.3     1  ZINC000523153175    0.0600
     19 H19       -10.5183   -2.8805   61.4356 H       1  ZINC000523153175    0.1100
     20 C20        -9.7563   -0.8716   61.5915 C.3     1  ZINC000523153175   -0.1800
     21 C21       -12.0802   -1.4956   60.9919 C.2     1  ZINC000523153175    0.5200
     22 O22       -12.3754   -0.4540   61.5383 O.2     1  ZINC000523153175   -0.5200
     23 N23       -13.0419   -2.2674   60.4479 N.am    1  ZINC000523153175   -0.7200
     24 C24       -14.4437   -1.8471   60.5152 C.3     1  ZINC000523153175    0.1400
     25 C25       -14.6882   -0.6662   59.5532 C.3     1  ZINC000523153175   -0.1300
     26 C26       -15.2314   -1.3321   58.2646 C.3     1  ZINC000523153175   -0.1300
     27 C27       -16.1294   -2.4661   58.8184 C.3     1  ZINC000523153175   -0.1300
     28 C28       -15.3602   -2.9916   60.0480 C.3     1  ZINC000523153175   -0.1300
     29 C29       -10.5840   -3.4118   59.0092 C.3     1  ZINC000523153175    0.0400
     30 C30       -10.0000   -3.5907   57.6088 C.3     1  ZINC000523153175    0.1200
     31 C31       -12.1757    0.3177   52.5186 C.ar    1  ZINC000523153175   -0.1100
     32 C32       -12.9388    1.2598   51.8545 C.ar    1  ZINC000523153175   -0.1200
     33 H33       -15.8413    3.8379   50.9481 H       1  ZINC000523153175    0.0600
     34 H34       -15.7761    2.7415   52.3488 H       1  ZINC000523153175    0.0600
     35 H35       -14.2937    3.5436   51.7767 H       1  ZINC000523153175    0.0600
     36 H36       -15.9055    1.4665   50.2260 H       1  ZINC000523153175    0.0800
     37 H37       -13.2616    2.8603   49.6064 H       1  ZINC000523153175    0.0600
     38 H38       -14.0086    1.5713   48.6324 H       1  ZINC000523153175    0.0600
     39 H39       -14.8092    3.1545   48.7777 H       1  ZINC000523153175    0.0600
     40 H40       -15.4737   -0.7192   50.8366 H       1  ZINC000523153175    0.1200
     41 H41       -14.1110   -2.3985   52.0140 H       1  ZINC000523153175    0.1200
     42 H42        -9.8473   -2.9828   53.0602 H       1  ZINC000523153175    0.0800
     43 H43       -10.6663   -2.5897   51.5295 H       1  ZINC000523153175    0.0600
     44 H44        -9.9030   -1.2983   52.4877 H       1  ZINC000523153175    0.0500
     45 H45       -10.6685   -0.7849   54.6761 H       1  ZINC000523153175    0.0900
     46 H46       -12.3582   -1.0923   55.1440 H       1  ZINC000523153175    0.0900
     47 H47        -9.1945   -0.8636   57.2928 H       1  ZINC000523153175    0.0800
     48 H48       -10.7788   -0.3992   56.6184 H       1  ZINC000523153175    0.0900
     49 H49       -10.6095   -0.0468   59.1152 H       1  ZINC000523153175    0.0900
     50 H50       -11.9175   -1.1588   58.6437 H       1  ZINC000523153175    0.0400
     51 H51        -9.8760    0.0819   61.0770 H       1  ZINC000523153175    0.0700
     52 H52       -10.0516   -0.7610   62.6348 H       1  ZINC000523153175    0.0700
     53 H53        -8.7131   -1.1837   61.5402 H       1  ZINC000523153175    0.0700
     54 H54       -12.8059   -3.1011   60.0119 H       1  ZINC000523153175    0.4000
     55 H55       -14.6980   -1.5578   61.5349 H       1  ZINC000523153175    0.0900
     56 H56       -15.4271    0.0184   59.9695 H       1  ZINC000523153175    0.0700
     57 H57       -13.7546   -0.1423   59.3475 H       1  ZINC000523153175    0.0700
     58 H58       -15.8196   -0.6232   57.6819 H       1  ZINC000523153175    0.0700
     59 H59       -14.4160   -1.7414   57.6681 H       1  ZINC000523153175    0.0700
     60 H60       -17.1011   -2.0723   59.1160 H       1  ZINC000523153175    0.0700
     61 H61       -16.2477   -3.2558   58.0764 H       1  ZINC000523153175    0.0700
     62 H62       -14.7619   -3.8597   59.7711 H       1  ZINC000523153175    0.0700
     63 H63       -16.0597   -3.2571   60.8406 H       1  ZINC000523153175    0.0800
     64 H64       -10.1731   -4.1700   59.6757 H       1  ZINC000523153175    0.1000
     65 H65       -11.6681   -3.5155   58.9641 H       1  ZINC000523153175    0.0400
     66 H66       -10.3480   -4.5326   57.1845 H       1  ZINC000523153175    0.1000
     67 H67        -8.9113   -3.5906   57.6633 H       1  ZINC000523153175    0.0800
     68 H68       -11.2491    0.6090   52.9910 H       1  ZINC000523153175    0.1200
     69 H69       -12.6099    2.2875   51.8103 H       1  ZINC000523153175    0.1200
@<TRIPOS>BOND
     1     1     2    1
     2     1    33    1
     3     1    34    1
     4     1    35    1
     5     2     3    1
     6     2     4    1
     7     2    36    1
     8     3    37    1
     9     3    38    1
    10     3    39    1
    11     4    32   ar
    12     4     5   ar
    13     5     6   ar
    14     5    40    1
    15     6     7   ar
    16     6    41    1
    17     7     8    1
    18     7    31   ar
    19     8     9    1
    20     8    10    1
    21     8    11    1
    22    10    42    1
    23    10    43    1
    24    10    44    1
    25    11    12    1
    26    11    45    1
    27    11    46    1
    28    12    13    2
    29    12    14   am
    30    14    30    1
    31    14    15    1
    32    15    16    1
    33    15    47    1
    34    15    48    1
    35    16    17    1
    36    16    49    1
    37    16    50    1
    38    17    18    1
    39    17    29    1
    40    18    19    1
    41    18    20    1
    42    18    21    1
    43    20    51    1
    44    20    52    1
    45    20    53    1
    46    21    22    2
    47    21    23   am
    48    23    24    1
    49    23    54    1
    50    24    28    1
    51    24    25    1
    52    24    55    1
    53    25    26    1
    54    25    56    1
    55    25    57    1
    56    26    27    1
    57    26    58    1
    58    26    59    1
    59    27    28    1
    60    27    60    1
    61    27    61    1
    62    28    62    1
    63    28    63    1
    64    29    30    1
    65    29    64    1
    66    29    65    1
    67    30    66    1
    68    30    67    1
    69    31    32   ar
    70    31    68    1
    71    32    69    1
@<TRIPOS>SUBSTRUCTURE
     1 ZINC000523153175        1 TEMP              0 ****  ****    0 ROOT


##########                                Name:    ZINC001067316277
##########                DOCK_Rotatable_Bonds:                   5
##########                         Heavy_Atoms:                  24
##########                    Molecular_Weight:             345.469
##########                DOCK_Rotatable_Bonds:                   5
##########                       Formal_Charge:          -0.0200007
##########                     HBond_Acceptors:                   7
##########                        HBond_Donors:                   2
##########                         Heavy_Atoms:                  24
##########                          Grid_Score:          -31.457314
##########                     Grid_vdw_energy:          -29.327200
##########                      Grid_es_energy:           -2.130114
##########           Internal_energy_repulsive:            7.490769

@<TRIPOS>MOLECULE
ZINC001067316277
 47 49 1 0 0
SMALL
USER_CHARGES


@<TRIPOS>ATOM
      1 C1        -14.0423   -5.4406   56.6671 C.3     1  ZINC001067316277   -0.1400
      2 S2        -13.6581   -5.3760   54.8995 S.3     1  ZINC001067316277   -0.0400
      3 C3        -12.5449   -4.0105   54.8781 C.ar    1  ZINC001067316277    0.1800
      4 C4        -11.9756   -3.5788   53.6775 C.ar    1  ZINC001067316277   -0.2400
      5 C5        -11.1085   -2.5045   53.7085 C.ar    1  ZINC001067316277    0.1900
      6 N6        -10.8434   -1.9183   54.8670 N.ar    1  ZINC001067316277   -0.5600
      7 C7        -11.3977   -2.3486   55.9910 C.ar    1  ZINC001067316277    0.5100
      8 N8        -11.0951   -1.7092   57.1805 N.3     1  ZINC001067316277   -0.4600
      9 C9        -12.3061   -1.1661   57.8089 C.3     1  ZINC001067316277    0.0700
     10 C10       -11.9187   -0.3445   59.0405 C.3     1  ZINC001067316277   -0.1300
     11 C11       -11.1657   -1.2393   60.0288 C.3     1  ZINC001067316277    0.1600
     12 H12       -11.8194   -2.0458   60.3609 H       1  ZINC001067316277    0.0900
     13 N13       -10.7427   -0.4446   61.1846 N.am    1  ZINC001067316277   -0.7200
     14 C14       -11.6067   -0.2063   62.1911 C.2     1  ZINC001067316277    0.5900
     15 O15       -12.7386   -0.6500   62.1393 O.2     1  ZINC001067316277   -0.5300
     16 C16       -11.1826    0.5879   63.3491 C.2     1  ZINC001067316277   -0.0600
     17 C17       -11.9548    0.9057   64.4462 C.2     1  ZINC001067316277   -0.1000
     18 C18       -11.1571    1.6713   65.3021 C.2     1  ZINC001067316277   -0.2100
     19 C19        -9.9385    1.8050   64.7258 C.2     1  ZINC001067316277    0.0300
     20 N20        -9.9393    1.1466   63.5412 N.pl3   1  ZINC001067316277   -0.5400
     21 C21        -9.9355   -1.8305   59.3348 C.3     1  ZINC001067316277   -0.0700
     22 C22        -8.9922   -0.7006   58.9172 C.3     1  ZINC001067316277   -0.1400
     23 C23        -9.2095   -2.7727   60.2972 C.3     1  ZINC001067316277   -0.1400
     24 C24       -10.3805   -2.6091   58.0947 C.3     1  ZINC001067316277    0.0800
     25 N25       -12.2384   -3.3717   56.0038 N.ar    1  ZINC001067316277   -0.5400
     26 H26       -13.1254   -5.6076   57.2323 H       1  ZINC001067316277    0.0900
     27 H27       -14.4927   -4.4971   56.9757 H       1  ZINC001067316277    0.0900
     28 H28       -14.7403   -6.2559   56.8577 H       1  ZINC001067316277    0.1000
     29 H29       -12.2079   -4.0743   52.7464 H       1  ZINC001067316277    0.1500
     30 H30       -10.6510   -2.1460   52.7982 H       1  ZINC001067316277    0.1700
     31 H31       -12.8300   -0.5283   57.0970 H       1  ZINC001067316277    0.1000
     32 H32       -12.9581   -1.9862   58.1098 H       1  ZINC001067316277    0.0500
     33 H33       -11.2779    0.4839   58.7384 H       1  ZINC001067316277    0.0800
     34 H34       -12.8189    0.0455   59.5156 H       1  ZINC001067316277    0.0800
     35 H35        -9.8407   -0.0899   61.2253 H       1  ZINC001067316277    0.3900
     36 H36       -12.9822    0.6178   64.6129 H       1  ZINC001067316277    0.1500
     37 H37       -11.4589    2.0834   66.2537 H       1  ZINC001067316277    0.1500
     38 H38        -9.1018    2.3449   65.1439 H       1  ZINC001067316277    0.1700
     39 H39        -9.1902    1.0843   62.9280 H       1  ZINC001067316277    0.4100
     40 H40        -8.6784   -0.1442   59.8005 H       1  ZINC001067316277    0.0500
     41 H41        -8.1167   -1.1220   58.4233 H       1  ZINC001067316277    0.0600
     42 H42        -9.5095   -0.0305   58.2306 H       1  ZINC001067316277    0.0700
     43 H43        -9.8816   -3.5782   60.5931 H       1  ZINC001067316277    0.0600
     44 H44        -8.3339   -3.1931   59.8026 H       1  ZINC001067316277    0.0600
     45 H45        -8.8959   -2.2177   61.1814 H       1  ZINC001067316277    0.0600
     46 H46       -11.0414   -3.4223   58.3942 H       1  ZINC001067316277    0.0600
     47 H47        -9.5056   -3.0194   57.5902 H       1  ZINC001067316277    0.1000
@<TRIPOS>BOND
     1     1     2    1
     2     1    26    1
     3     1    27    1
     4     1    28    1
     5     2     3    1
     6     3    25   ar
     7     3     4   ar
     8     4     5   ar
     9     4    29    1
    10     5     6   ar
    11     5    30    1
    12     6     7   ar
    13     7     8    1
    14     7    25   ar
    15     8    24    1
    16     8     9    1
    17     9    10    1
    18     9    31    1
    19     9    32    1
    20    10    11    1
    21    10    33    1
    22    10    34    1
    23    11    12    1
    24    11    13    1
    25    11    21    1
    26    13    14   am
    27    13    35    1
    28    14    15    2
    29    14    16    1
    30    16    20    1
    31    16    17    2
    32    17    18    1
    33    17    36    1
    34    18    19    2
    35    18    37    1
    36    19    20    1
    37    19    38    1
    38    20    39    1
    39    21    22    1
    40    21    23    1
    41    21    24    1
    42    22    40    1
    43    22    41    1
    44    22    42    1
    45    23    43    1
    46    23    44    1
    47    23    45    1
    48    24    46    1
    49    24    47    1
@<TRIPOS>SUBSTRUCTURE
     1 ZINC001067316277        1 TEMP              0 ****  ****    0 ROOT


##########                                Name:    ZINC000790735374
##########                DOCK_Rotatable_Bonds:                   5
##########                         Heavy_Atoms:                  25
##########                    Molecular_Weight:             353.445
##########                DOCK_Rotatable_Bonds:                   5
##########                       Formal_Charge:                   0
##########                     HBond_Acceptors:                   6
##########                        HBond_Donors:                   1
##########                         Heavy_Atoms:                  25
##########                          Grid_Score:          -31.426815
##########                     Grid_vdw_energy:          -31.011269
##########                      Grid_es_energy:           -0.415546
##########           Internal_energy_repulsive:           10.490833

@<TRIPOS>MOLECULE
ZINC000790735374
 44 47 1 0 0
SMALL
USER_CHARGES


@<TRIPOS>ATOM
      1 O1        -12.6621    0.1197   55.5861 O.2     1  ZINC000790735374   -0.5100
      2 C2        -12.8737   -0.9855   55.1337 C.2     1  ZINC000790735374    0.5000
      3 N3        -13.0660   -2.0286   55.9654 N.am    1  ZINC000790735374   -0.7200
      4 C4        -13.0133   -1.8285   57.4157 C.3     1  ZINC000790735374    0.1400
      5 C5        -12.2634   -2.9936   58.0644 C.3     1  ZINC000790735374   -0.0300
      6 H6        -12.9834   -3.7044   58.4701 H       1  ZINC000790735374    0.1100
      7 S7        -11.2436   -3.8208   56.8140 S.3     1  ZINC000790735374   -0.2400
      8 C8        -10.1675   -4.8417   57.8696 C.3     1  ZINC000790735374   -0.0800
      9 C9         -9.3214   -3.9017   58.7155 C.3     1  ZINC000790735374   -0.0800
     10 C10       -10.1278   -2.8863   59.4741 C.ar    1  ZINC000790735374   -0.0700
     11 C11        -9.4723   -2.3339   60.5797 C.ar    1  ZINC000790735374   -0.1200
     12 C12       -10.0710   -1.3788   61.3670 C.ar    1  ZINC000790735374   -0.1100
     13 C13       -11.3491   -0.9485   61.0625 C.ar    1  ZINC000790735374   -0.1200
     14 C14       -12.0019   -1.4922   59.9798 C.ar    1  ZINC000790735374   -0.1100
     15 C15       -11.3966   -2.4686   59.1820 C.ar    1  ZINC000790735374   -0.0800
     16 C16       -12.9280   -1.1914   53.6418 C.3     1  ZINC000790735374    0.0300
     17 H17       -13.9424   -1.0533   53.2677 H       1  ZINC000790735374    0.1500
     18 C18       -11.9370   -0.2502   52.9164 C.3     1  ZINC000790735374   -0.1400
     19 C19       -10.7004   -1.1176   52.7771 C.2     1  ZINC000790735374    0.1200
     20 C20        -9.3423   -0.6413   52.4478 C.ar    1  ZINC000790735374   -0.1000
     21 C21        -9.0109    0.7125   52.5804 C.ar    1  ZINC000790735374   -0.0400
     22 C22        -7.7240    1.1072   52.2591 C.ar    1  ZINC000790735374   -0.1700
     23 C23        -6.8149    0.1611   51.8216 C.ar    1  ZINC000790735374    0.1200
     24 N24        -7.1550   -1.1084   51.7062 N.ar    1  ZINC000790735374   -0.4800
     25 C25        -8.3648   -1.5342   52.0044 C.ar    1  ZINC000790735374    0.1400
     26 N26       -11.0395   -2.3437   52.9961 N.2     1  ZINC000790735374   -0.2700
     27 O27       -12.4174   -2.4909   53.2813 O.3     1  ZINC000790735374   -0.1600
     28 H28       -13.2392   -2.9118   55.6037 H       1  ZINC000790735374    0.4100
     29 H29       -12.4946   -0.8953   57.6351 H       1  ZINC000790735374    0.0800
     30 H30       -14.0272   -1.7826   57.8132 H       1  ZINC000790735374    0.0900
     31 H31       -10.7763   -5.4736   58.5163 H       1  ZINC000790735374    0.0900
     32 H32        -9.5214   -5.4619   57.2483 H       1  ZINC000790735374    0.1100
     33 H33        -8.7478   -4.4946   59.4280 H       1  ZINC000790735374    0.0900
     34 H34        -8.6247   -3.3765   58.0623 H       1  ZINC000790735374    0.0900
     35 H35        -8.4730   -2.6655   60.8205 H       1  ZINC000790735374    0.1200
     36 H36        -9.5469   -0.9680   62.2172 H       1  ZINC000790735374    0.1300
     37 H37       -11.8300   -0.1944   61.6678 H       1  ZINC000790735374    0.1300
     38 H38       -12.9999   -1.1562   59.7404 H       1  ZINC000790735374    0.1300
     39 H39       -12.3212    0.0359   51.9373 H       1  ZINC000790735374    0.1200
     40 H40       -11.7256    0.6306   53.5227 H       1  ZINC000790735374    0.1100
     41 H41        -9.7410    1.4303   52.9240 H       1  ZINC000790735374    0.1500
     42 H42        -7.4327    2.1433   52.3487 H       1  ZINC000790735374    0.1500
     43 H43        -5.8101    0.4667   51.5699 H       1  ZINC000790735374    0.1600
     44 H44        -8.6054   -2.5816   51.8974 H       1  ZINC000790735374    0.1600
@<TRIPOS>BOND
     1     1     2    2
     2     2     3   am
     3     2    16    1
     4     3     4    1
     5     3    28    1
     6     4     5    1
     7     4    29    1
     8     4    30    1
     9     5     6    1
    10     5    15    1
    11     5     7    1
    12     7     8    1
    13     8     9    1
    14     8    31    1
    15     8    32    1
    16     9    10    1
    17     9    33    1
    18     9    34    1
    19    10    15   ar
    20    10    11   ar
    21    11    12   ar
    22    11    35    1
    23    12    13   ar
    24    12    36    1
    25    13    14   ar
    26    13    37    1
    27    14    15   ar
    28    14    38    1
    29    16    17    1
    30    16    27    1
    31    16    18    1
    32    18    19    1
    33    18    39    1
    34    18    40    1
    35    19    20    1
    36    19    26    2
    37    20    25   ar
    38    20    21   ar
    39    21    22   ar
    40    21    41    1
    41    22    23   ar
    42    22    42    1
    43    23    24   ar
    44    23    43    1
    45    24    25   ar
    46    25    44    1
    47    26    27    1
@<TRIPOS>SUBSTRUCTURE
     1 ZINC000790735374        1 TEMP              0 ****  ****    0 ROOT


##########                                Name:    ZINC000971513996
##########                DOCK_Rotatable_Bonds:                   6
##########                         Heavy_Atoms:                  27
##########                    Molecular_Weight:             369.464
##########                DOCK_Rotatable_Bonds:                   6
##########                       Formal_Charge:          -0.0300002
##########                     HBond_Acceptors:                   6
##########                        HBond_Donors:                   1
##########                         Heavy_Atoms:                  27
##########                          Grid_Score:          -31.402102
##########                     Grid_vdw_energy:          -30.981081
##########                      Grid_es_energy:           -0.421021
##########           Internal_energy_repulsive:           18.515751

@<TRIPOS>MOLECULE
ZINC000971513996
 54 57 1 0 0
SMALL
USER_CHARGES


@<TRIPOS>ATOM
      1 C1        -13.7695   -3.6353   55.6812 C.3     1  ZINC000971513996   -0.1600
      2 C2        -14.2267   -3.9892   57.0978 C.3     1  ZINC000971513996   -0.1400
      3 C3        -13.8328   -2.8640   58.0569 C.3     1  ZINC000971513996    0.0800
      4 H4        -14.3023   -1.9335   57.7375 H       1  ZINC000971513996    0.0800
      5 O5        -14.2699   -3.1892   59.3779 O.3     1  ZINC000971513996   -0.3600
      6 C6        -14.2537   -2.0843   60.2840 C.3     1  ZINC000971513996    0.0200
      7 C7        -12.3349   -2.6990   58.0496 C.2     1  ZINC000971513996    0.5400
      8 O8        -11.6271   -3.5668   58.5153 O.2     1  ZINC000971513996   -0.5100
      9 N9        -11.7819   -1.5873   57.5257 N.am    1  ZINC000971513996   -0.6400
     10 C10       -12.2659   -0.3509   56.8882 C.3     1  ZINC000971513996    0.1000
     11 C11       -11.0029    0.3461   57.4296 C.3     1  ZINC000971513996   -0.1200
     12 H12       -10.5517    1.0731   56.7543 H       1  ZINC000971513996    0.1100
     13 C13       -11.2216    0.8734   58.8498 C.3     1  ZINC000971513996   -0.1200
     14 C14        -9.9378    0.6805   59.6623 C.3     1  ZINC000971513996    0.1100
     15 N15        -9.6058   -0.7467   59.6641 N.am    1  ZINC000971513996   -0.6000
     16 C16        -9.4617   -1.3981   60.8352 C.2     1  ZINC000971513996    0.5900
     17 O17        -9.1861   -2.5828   60.8423 O.2     1  ZINC000971513996   -0.5200
     18 C18        -9.6375   -0.6765   62.1045 C.2     1  ZINC000971513996    0.0200
     19 C19       -10.7905   -0.0948   62.5266 C.2     1  ZINC000971513996   -0.1000
     20 C20       -10.5402    0.4907   63.7913 C.ar    1  ZINC000971513996   -0.1100
     21 C21       -11.3346    1.2115   64.6919 C.ar    1  ZINC000971513996   -0.0600
     22 C22       -10.7971    1.6587   65.8638 C.ar    1  ZINC000971513996   -0.1200
     23 C23       -11.6546    2.4340   66.8306 C.3     1  ZINC000971513996   -0.1100
     24 C24        -9.4671    1.4056   66.1742 C.ar    1  ZINC000971513996   -0.0800
     25 C25        -8.6657    0.6991   65.3053 C.ar    1  ZINC000971513996   -0.1300
     26 C26        -9.1907    0.2329   64.1035 C.ar    1  ZINC000971513996    0.1100
     27 N27        -8.6582   -0.4874   63.0604 N.pl3   1  ZINC000971513996   -0.5800
     28 C28        -9.4308   -1.4673   58.4100 C.3     1  ZINC000971513996    0.0700
     29 C29       -10.4283   -1.0598   57.3387 C.3     1  ZINC000971513996    0.1300
     30 H30       -10.0490   -1.2809   56.3411 H       1  ZINC000971513996    0.1100
     31 H31       -13.9560   -4.4796   55.0176 H       1  ZINC000971513996    0.0600
     32 H32       -14.3232   -2.7657   55.3272 H       1  ZINC000971513996    0.0600
     33 H33       -12.7033   -3.4084   55.6895 H       1  ZINC000971513996    0.0600
     34 H34       -15.3094   -4.1142   57.1095 H       1  ZINC000971513996    0.0800
     35 H35       -13.7502   -4.9178   57.4121 H       1  ZINC000971513996    0.0800
     36 H36       -13.2253   -1.7600   60.4432 H       1  ZINC000971513996    0.0400
     37 H37       -14.8332   -1.2620   59.8646 H       1  ZINC000971513996    0.0500
     38 H38       -14.6902   -2.3883   61.2354 H       1  ZINC000971513996    0.0900
     39 H39       -12.2996   -0.4066   55.8001 H       1  ZINC000971513996    0.0900
     40 H40       -13.1916    0.0284   57.3211 H       1  ZINC000971513996    0.0800
     41 H41       -11.4715    1.9336   58.8101 H       1  ZINC000971513996    0.0900
     42 H42       -12.0365    0.3237   59.3209 H       1  ZINC000971513996    0.0700
     43 H43        -9.1255    1.2462   59.2059 H       1  ZINC000971513996    0.0800
     44 H44       -10.0952    1.0227   60.6852 H       1  ZINC000971513996    0.1000
     45 H45       -11.7295   -0.0814   61.9932 H       1  ZINC000971513996    0.1500
     46 H46       -12.3697    1.4133   64.4593 H       1  ZINC000971513996    0.1200
     47 H47       -12.1354    1.7439   67.5240 H       1  ZINC000971513996    0.0700
     48 H48       -11.0321    3.1341   67.3878 H       1  ZINC000971513996    0.0600
     49 H49       -12.4167    2.9848   66.2793 H       1  ZINC000971513996    0.0600
     50 H50        -9.0573    1.7665   67.1060 H       1  ZINC000971513996    0.1300
     51 H51        -7.6326    0.5076   65.5553 H       1  ZINC000971513996    0.1200
     52 H52        -7.7448   -0.8090   63.0045 H       1  ZINC000971513996    0.4200
     53 H53        -8.4274   -1.2735   58.0308 H       1  ZINC000971513996    0.0800
     54 H54        -9.5306   -2.5357   58.6021 H       1  ZINC000971513996    0.1200
@<TRIPOS>BOND
     1     1     2    1
     2     1    31    1
     3     1    32    1
     4     1    33    1
     5     2     3    1
     6     2    34    1
     7     2    35    1
     8     3     4    1
     9     3     5    1
    10     3     7    1
    11     5     6    1
    12     6    36    1
    13     6    37    1
    14     6    38    1
    15     7     8    2
    16     7     9   am
    17     9    29    1
    18     9    10    1
    19    10    11    1
    20    10    39    1
    21    10    40    1
    22    11    12    1
    23    11    29    1
    24    11    13    1
    25    13    14    1
    26    13    41    1
    27    13    42    1
    28    14    15    1
    29    14    43    1
    30    14    44    1
    31    15    16   am
    32    15    28    1
    33    16    17    2
    34    16    18    1
    35    18    27    1
    36    18    19    2
    37    19    20    1
    38    19    45    1
    39    20    26   ar
    40    20    21   ar
    41    21    22   ar
    42    21    46    1
    43    22    23    1
    44    22    24   ar
    45    23    47    1
    46    23    48    1
    47    23    49    1
    48    24    25   ar
    49    24    50    1
    50    25    26   ar
    51    25    51    1
    52    26    27    1
    53    27    52    1
    54    28    29    1
    55    28    53    1
    56    28    54    1
    57    29    30    1
@<TRIPOS>SUBSTRUCTURE
     1 ZINC000971513996        1 TEMP              0 ****  ****    0 ROOT


##########                                Name:    ZINC000474368324
##########                DOCK_Rotatable_Bonds:                   9
##########                         Heavy_Atoms:                  27
##########                    Molecular_Weight:             417.332
##########                DOCK_Rotatable_Bonds:                   9
##########                       Formal_Charge:        -1.63913e-07
##########                     HBond_Acceptors:                   8
##########                        HBond_Donors:                   1
##########                         Heavy_Atoms:                  27
##########                          Grid_Score:          -31.374550
##########                     Grid_vdw_energy:          -30.166721
##########                      Grid_es_energy:           -1.207829
##########           Internal_energy_repulsive:           25.785255

@<TRIPOS>MOLECULE
ZINC000474368324
 53 54 1 0 0
SMALL
USER_CHARGES


@<TRIPOS>ATOM
      1 C1        -12.8024   -4.7714   53.7317 C.3     1  ZINC000474368324   -0.1500
      2 C2        -12.8378   -4.1959   55.1489 C.3     1  ZINC000474368324    0.0600
      3 O3        -14.2171   -4.0636   55.5832 O.3     1  ZINC000474368324   -0.3300
      4 C4        -14.4591   -4.2078   56.8956 C.2     1  ZINC000474368324    0.4700
      5 O5        -14.3523   -5.2940   57.4139 O.2     1  ZINC000474368324   -0.5100
      6 C6        -14.8641   -3.0148   57.7225 C.3     1  ZINC000474368324   -0.0400
      7 C7        -16.1586   -2.4220   57.1624 C.3     1  ZINC000474368324    0.0600
      8 O8        -15.9047   -1.8534   55.8762 O.3     1  ZINC000474368324   -0.3700
      9 C9        -17.0716   -1.3508   55.2222 C.3     1  ZINC000474368324    0.0300
     10 C10       -15.0893   -3.4519   59.1719 C.3     1  ZINC000474368324   -0.1200
     11 C11       -15.5343   -2.2438   60.0021 C.3     1  ZINC000474368324    0.1100
     12 N12       -14.5444   -1.1699   59.8426 N.am    1  ZINC000474368324   -0.6300
     13 C13       -13.9750   -0.5951   60.9204 C.2     1  ZINC000474368324    0.7100
     14 O14       -14.2792   -0.9643   62.0382 O.2     1  ZINC000474368324   -0.5800
     15 N15       -13.0684    0.3891   60.7592 N.am    1  ZINC000474368324   -0.7400
     16 C16       -12.4495    1.0140   61.9308 C.3     1  ZINC000474368324    0.2000
     17 H17       -13.0892    0.8678   62.8011 H       1  ZINC000474368324    0.1100
     18 C18       -12.2707    2.5118   61.6751 C.3     1  ZINC000474368324   -0.1600
     19 C19       -11.1043    0.3836   62.1846 C.ar    1  ZINC000474368324   -0.0700
     20 C20       -10.4258   -0.2361   61.1523 C.ar    1  ZINC000474368324   -0.1000
     21 C21        -9.1914   -0.8143   61.3841 C.ar    1  ZINC000474368324   -0.0900
     22 C22        -8.6347   -0.7731   62.6484 C.ar    1  ZINC000474368324   -0.1000
     23 C23        -9.3125   -0.1531   63.6829 C.ar    1  ZINC000474368324   -0.0300
     24 Cl24       -8.6136   -0.1012   65.2711 Cl      1  ZINC000474368324   -0.0400
     25 C25       -10.5461    0.4304   63.4495 C.ar    1  ZINC000474368324   -0.0300
     26 Cl26      -11.3977    1.2093   64.7464 Cl      1  ZINC000474368324   -0.0400
     27 C27       -14.1865   -0.7349   58.4855 C.3     1  ZINC000474368324    0.1300
     28 C28       -13.7566   -1.9599   57.6723 C.3     1  ZINC000474368324   -0.1200
     29 H29       -11.7670   -4.8706   53.4057 H       1  ZINC000474368324    0.0800
     30 H30       -13.2808   -5.7507   53.7251 H       1  ZINC000474368324    0.0700
     31 H31       -13.3340   -4.1028   53.0546 H       1  ZINC000474368324    0.0700
     32 H32       -12.3062   -4.8645   55.8259 H       1  ZINC000474368324    0.0700
     33 H33       -12.3594   -3.2166   55.1554 H       1  ZINC000474368324    0.0700
     34 H34       -16.9083   -3.2079   57.0706 H       1  ZINC000474368324    0.0700
     35 H35       -16.5249   -1.6474   57.8362 H       1  ZINC000474368324    0.0600
     36 H36       -17.7861   -2.1616   55.0800 H       1  ZINC000474368324    0.0400
     37 H37       -17.5241   -0.5711   55.8349 H       1  ZINC000474368324    0.0400
     38 H38       -16.7948   -0.9363   54.2529 H       1  ZINC000474368324    0.0900
     39 H39       -15.8619   -4.2201   59.2044 H       1  ZINC000474368324    0.1000
     40 H40       -14.1609   -3.8515   59.5797 H       1  ZINC000474368324    0.0800
     41 H41       -16.5074   -1.8986   59.6525 H       1  ZINC000474368324    0.0800
     42 H42       -15.6003   -2.5267   61.0526 H       1  ZINC000474368324    0.0800
     43 H43       -12.8256    0.6836   59.8674 H       1  ZINC000474368324    0.3900
     44 H44       -11.6309    2.6580   60.8048 H       1  ZINC000474368324    0.0600
     45 H45       -13.2436    2.9678   61.4915 H       1  ZINC000474368324    0.0700
     46 H46       -11.8101    2.9768   62.5468 H       1  ZINC000474368324    0.0700
     47 H47       -10.8602   -0.2691   60.1640 H       1  ZINC000474368324    0.1300
     48 H48        -8.6622   -1.2986   60.5768 H       1  ZINC000474368324    0.1400
     49 H49        -7.6706   -1.2252   62.8289 H       1  ZINC000474368324    0.1500
     50 H50       -15.0496   -0.2666   58.0123 H       1  ZINC000474368324    0.0700
     51 H51       -13.3632   -0.0222   58.5354 H       1  ZINC000474368324    0.1100
     52 H52       -12.8407   -2.3735   58.0943 H       1  ZINC000474368324    0.0900
     53 H53       -13.5806   -1.6661   56.6375 H       1  ZINC000474368324    0.0900
@<TRIPOS>BOND
     1     1     2    1
     2     1    29    1
     3     1    30    1
     4     1    31    1
     5     2     3    1
     6     2    32    1
     7     2    33    1
     8     3     4    1
     9     4     5    2
    10     4     6    1
    11     6    28    1
    12     6     7    1
    13     6    10    1
    14     7     8    1
    15     7    34    1
    16     7    35    1
    17     8     9    1
    18     9    36    1
    19     9    37    1
    20     9    38    1
    21    10    11    1
    22    10    39    1
    23    10    40    1
    24    11    12    1
    25    11    41    1
    26    11    42    1
    27    12    13   am
    28    12    27    1
    29    13    14    2
    30    13    15   am
    31    15    16    1
    32    15    43    1
    33    16    17    1
    34    16    18    1
    35    16    19    1
    36    18    44    1
    37    18    45    1
    38    18    46    1
    39    19    25   ar
    40    19    20   ar
    41    20    21   ar
    42    20    47    1
    43    21    22   ar
    44    21    48    1
    45    22    23   ar
    46    22    49    1
    47    23    24    1
    48    23    25   ar
    49    25    26    1
    50    27    28    1
    51    27    50    1
    52    27    51    1
    53    28    52    1
    54    28    53    1
@<TRIPOS>SUBSTRUCTURE
     1 ZINC000474368324        1 TEMP              0 ****  ****    0 ROOT


##########                                Name:    ZINC001345266033
##########                DOCK_Rotatable_Bonds:                   4
##########                         Heavy_Atoms:                  29
##########                    Molecular_Weight:               389.5
##########                DOCK_Rotatable_Bonds:                   4
##########                       Formal_Charge:          -0.0100001
##########                     HBond_Acceptors:                   6
##########                        HBond_Donors:                   0
##########                         Heavy_Atoms:                  29
##########                          Grid_Score:          -31.373861
##########                     Grid_vdw_energy:          -30.446161
##########                      Grid_es_energy:           -0.927700
##########           Internal_energy_repulsive:            9.210720

@<TRIPOS>MOLECULE
ZINC001345266033
 56 61 1 0 0
SMALL
USER_CHARGES


@<TRIPOS>ATOM
      1 C1         -8.7948   -0.5214   63.1375 C.ar    1  ZINC001345266033   -0.1100
      2 C2         -8.8106   -1.2941   61.9791 C.ar    1  ZINC001345266033   -0.0900
      3 C3         -9.3520   -0.8136   60.8223 C.ar    1  ZINC001345266033   -0.1100
      4 C4         -9.8979    0.4720   60.8022 C.ar    1  ZINC001345266033    0.0000
      5 C5         -9.8844    1.2626   61.9801 C.ar    1  ZINC001345266033   -0.1100
      6 C6         -9.3189    0.7363   63.1519 C.ar    1  ZINC001345266033   -0.0900
      7 C7        -10.4403    2.5513   61.9322 C.ar    1  ZINC001345266033    0.1700
      8 N8        -10.9624    3.0188   60.8240 N.ar    1  ZINC001345266033   -0.4800
      9 C9        -11.0091    2.3384   59.6908 C.ar    1  ZINC001345266033    0.0900
     10 C10       -10.4949    1.0515   59.5995 C.ar    1  ZINC001345266033   -0.0700
     11 C11       -10.5488    0.2958   58.3337 C.2     1  ZINC001345266033    0.2300
     12 N12        -9.5581    0.1133   57.4899 N.2     1  ZINC001345266033   -0.2600
     13 N13        -9.9564   -0.5937   56.4935 N.2     1  ZINC001345266033   -0.3000
     14 C14       -11.2246   -0.9059   56.6394 C.2     1  ZINC001345266033    0.3600
     15 N15       -11.9903   -1.6567   55.7651 N.3     1  ZINC001345266033   -0.4600
     16 C16       -11.6337   -1.3665   54.3711 C.3     1  ZINC001345266033    0.0600
     17 C17       -12.6349   -2.0357   53.4274 C.3     1  ZINC001345266033   -0.1100
     18 C18       -12.5661   -3.5560   53.6151 C.3     1  ZINC001345266033   -0.0800
     19 C19       -12.7740   -3.8728   55.0999 C.3     1  ZINC001345266033   -0.1300
     20 C20       -14.1928   -4.1953   55.5661 C.3     1  ZINC001345266033   -0.1600
     21 C21       -13.1440   -5.3062   55.4770 C.3     1  ZINC001345266033   -0.1700
     22 C22       -11.8682   -3.0927   56.0572 C.3     1  ZINC001345266033    0.1100
     23 N23       -11.6445   -0.3568   57.8162 N.pl3   1  ZINC001345266033   -0.4600
     24 C24       -12.9848   -0.4378   58.4021 C.3     1  ZINC001345266033    0.1000
     25 C25       -13.0587   -1.6436   59.3411 C.3     1  ZINC001345266033   -0.1400
     26 H26       -12.2690   -2.3574   59.1067 H       1  ZINC001345266033    0.1000
     27 C27       -14.4474   -2.3211   59.2447 C.3     1  ZINC001345266033   -0.1500
     28 C28       -14.7449   -2.6642   60.7267 C.3     1  ZINC001345266033    0.0500
     29 O29       -14.2009   -1.5384   61.4487 O.3     1  ZINC001345266033   -0.3700
     30 C30       -12.9574   -1.1902   60.8103 C.3     1  ZINC001345266033    0.0300
     31 H31        -8.3639   -0.9274   64.0407 H       1  ZINC001345266033    0.1300
     32 H32        -8.3882   -2.2879   61.9964 H       1  ZINC001345266033    0.1300
     33 H33        -9.3579   -1.4218   59.9300 H       1  ZINC001345266033    0.1600
     34 H34        -9.2999    1.3234   64.0581 H       1  ZINC001345266033    0.1400
     35 H35       -10.4380    3.1656   62.8205 H       1  ZINC001345266033    0.1700
     36 H36       -11.4565    2.7925   58.8190 H       1  ZINC001345266033    0.1700
     37 H37       -11.6494   -0.2886   54.2103 H       1  ZINC001345266033    0.0700
     38 H38       -10.6331   -1.7473   54.1665 H       1  ZINC001345266033    0.0500
     39 H39       -13.6414   -1.6858   53.6566 H       1  ZINC001345266033    0.0800
     40 H40       -12.3873   -1.7846   52.3961 H       1  ZINC001345266033    0.0800
     41 H41       -13.3490   -4.0335   53.0258 H       1  ZINC001345266033    0.0700
     42 H42       -11.5897   -3.9205   53.2961 H       1  ZINC001345266033    0.0700
     43 H43       -14.4850   -3.8574   56.5604 H       1  ZINC001345266033    0.0900
     44 H44       -14.9832   -4.1879   54.8155 H       1  ZINC001345266033    0.0900
     45 H45       -13.2443   -6.0296   54.6679 H       1  ZINC001345266033    0.1000
     46 H46       -12.7462   -5.6991   56.4127 H       1  ZINC001345266033    0.1000
     47 H47       -10.8337   -3.4068   55.9183 H       1  ZINC001345266033    0.0600
     48 H48       -12.1742   -3.2833   57.0860 H       1  ZINC001345266033    0.0800
     49 H49       -13.1915    0.4732   58.9639 H       1  ZINC001345266033    0.1100
     50 H50       -13.7225   -0.5502   57.6077 H       1  ZINC001345266033    0.1100
     51 H51       -15.1909   -1.6294   58.8487 H       1  ZINC001345266033    0.0800
     52 H52       -14.3977   -3.2256   58.6384 H       1  ZINC001345266033    0.0900
     53 H53       -15.8190   -2.7447   60.8938 H       1  ZINC001345266033    0.1000
     54 H54       -14.2401   -3.5859   61.0160 H       1  ZINC001345266033    0.0600
     55 H55       -12.1315   -1.7029   61.3034 H       1  ZINC001345266033    0.0600
     56 H56       -12.8067   -0.1117   60.8556 H       1  ZINC001345266033    0.0900
@<TRIPOS>BOND
     1     1     6   ar
     2     1     2   ar
     3     1    31    1
     4     2     3   ar
     5     2    32    1
     6     3     4   ar
     7     3    33    1
     8     4    10   ar
     9     4     5   ar
    10     5     6   ar
    11     5     7   ar
    12     6    34    1
    13     7     8   ar
    14     7    35    1
    15     8     9   ar
    16     9    10   ar
    17     9    36    1
    18    10    11    1
    19    11    23    1
    20    11    12    2
    21    12    13    1
    22    13    14    2
    23    14    15    1
    24    14    23    1
    25    15    22    1
    26    15    16    1
    27    16    17    1
    28    16    37    1
    29    16    38    1
    30    17    18    1
    31    17    39    1
    32    17    40    1
    33    18    19    1
    34    18    41    1
    35    18    42    1
    36    19    21    1
    37    19    20    1
    38    19    22    1
    39    20    21    1
    40    20    43    1
    41    20    44    1
    42    21    45    1
    43    21    46    1
    44    22    47    1
    45    22    48    1
    46    23    24    1
    47    24    25    1
    48    24    49    1
    49    24    50    1
    50    25    26    1
    51    25    30    1
    52    25    27    1
    53    27    28    1
    54    27    51    1
    55    27    52    1
    56    28    29    1
    57    28    53    1
    58    28    54    1
    59    29    30    1
    60    30    55    1
    61    30    56    1
@<TRIPOS>SUBSTRUCTURE
     1 ZINC001345266033        1 TEMP              0 ****  ****    0 ROOT


##########                                Name:    ZINC000013551438
##########                DOCK_Rotatable_Bonds:                   5
##########                         Heavy_Atoms:                  27
##########                    Molecular_Weight:             377.467
##########                DOCK_Rotatable_Bonds:                   5
##########                       Formal_Charge:          -0.0300005
##########                     HBond_Acceptors:                   6
##########                        HBond_Donors:                   1
##########                         Heavy_Atoms:                  27
##########                          Grid_Score:          -31.368212
##########                     Grid_vdw_energy:          -29.078259
##########                      Grid_es_energy:           -2.289953
##########           Internal_energy_repulsive:            4.901420

@<TRIPOS>MOLECULE
ZINC000013551438
 46 49 1 0 0
SMALL
USER_CHARGES


@<TRIPOS>ATOM
      1 C1        -16.4723    1.4059   58.8556 C.3     1  <0>         0.0300
      2 O2        -16.6338    0.1499   59.5176 O.3     1  <0>        -0.3200
      3 C3        -15.9126   -0.8983   59.0374 C.ar    1  <0>         0.1000
      4 C4        -16.5629   -1.9621   58.4183 C.ar    1  <0>        -0.1800
      5 C5        -15.8471   -3.0310   57.9268 C.ar    1  <0>        -0.0900
      6 C6        -14.4614   -3.0544   58.0466 C.ar    1  <0>         0.0700
      7 C7        -13.8031   -1.9812   58.6709 C.ar    1  <0>        -0.0400
      8 C8        -14.5367   -0.9011   59.1606 C.ar    1  <0>        -0.1100
      9 C9        -12.3687   -2.3081   58.6375 C.2     1  <0>        -0.1200
     10 C10       -11.2601   -1.4825   59.1763 C.2     1  <0>         0.1700
     11 C11       -10.5075   -0.6752   58.4053 C.2     1  <0>        -0.3000
     12 S12        -9.3180    0.1118   59.4390 S.3     1  <0>         0.2500
     13 C13        -9.9372   -0.7107   60.8031 C.2     1  <0>         0.2400
     14 N14        -9.4510   -0.5771   62.0968 N.am    1  <0>        -0.6200
     15 C15        -9.9637    0.3625   62.9158 C.2     1  <0>         0.5600
     16 O16       -10.8528    1.0922   62.5223 O.2     1  <0>        -0.5000
     17 C17        -9.4449    0.5058   64.2923 C.ar    1  <0>        -0.1400
     18 C18        -9.9475    1.5025   65.1306 C.ar    1  <0>        -0.0800
     19 C19        -9.4594    1.6305   66.4145 C.ar    1  <0>        -0.1300
     20 C20        -8.4737    0.7738   66.8717 C.ar    1  <0>        -0.0800
     21 C21        -7.9708   -0.2158   66.0458 C.ar    1  <0>        -0.1300
     22 C22        -8.4543   -0.3585   64.7617 C.ar    1  <0>        -0.0500
     23 N23       -10.9279   -1.4712   60.4609 N.2     1  <0>        -0.5000
     24 C24       -12.2561   -3.5085   58.0206 C.2     1  <0>         0.1300
     25 C25       -10.9602   -4.2344   57.7662 C.3     1  <0>        -0.0900
     26 N26       -13.4961   -3.9629   57.6642 N.pl3   1  <0>        -0.4800
     27 C27       -13.7605   -5.2297   56.9775 C.3     1  <0>         0.0800
     28 H28       -16.7626    1.3054   57.8097 H       1  <0>         0.0500
     29 H29       -17.1021    2.1540   59.3371 H       1  <0>         0.1000
     30 H30       -15.4292    1.7165   58.9149 H       1  <0>         0.0500
     31 H31       -17.6387   -1.9491   58.3230 H       1  <0>         0.1300
     32 H32       -16.3617   -3.8514   57.4485 H       1  <0>         0.1200
     33 H33       -14.0328   -0.0753   59.6407 H       1  <0>         0.1300
     34 H34       -10.6143   -0.5349   57.3398 H       1  <0>         0.1800
     35 H35        -8.7424   -1.1601   62.4112 H       1  <0>         0.4200
     36 H36       -10.7167    2.1720   64.7749 H       1  <0>         0.1300
     37 H37        -9.8470    2.4013   67.0640 H       1  <0>         0.1300
     38 H38        -8.0949    0.8783   67.8777 H       1  <0>         0.1300
     39 H39        -7.2012   -0.8810   66.4088 H       1  <0>         0.1300
     40 H40        -8.0611   -1.1316   64.1181 H       1  <0>         0.1400
     41 H41       -10.7807   -4.9497   58.5689 H       1  <0>         0.0800
     42 H42       -11.0208   -4.7634   56.8151 H       1  <0>         0.0700
     43 H43       -10.1418   -3.5154   57.7306 H       1  <0>         0.0800
     44 H44       -13.9134   -6.0176   57.7149 H       1  <0>         0.0700
     45 H45       -14.6545   -5.1296   56.3620 H       1  <0>         0.0800
     46 H46       -12.9103   -5.4843   56.3447 H       1  <0>         0.0800
@<TRIPOS>BOND
     1     1     2    1
     2     1    28    1
     3     1    29    1
     4     1    30    1
     5     2     3    1
     6     3     8   ar
     7     3     4   ar
     8     4     5   ar
     9     4    31    1
    10     5     6   ar
    11     5    32    1
    12     6    26    1
    13     6     7   ar
    14     7     8   ar
    15     7     9    1
    16     8    33    1
    17     9    10    1
    18     9    24    2
    19    10    23    1
    20    10    11    2
    21    11    12    1
    22    11    34    1
    23    12    13    1
    24    13    14    1
    25    13    23    2
    26    14    15   am
    27    14    35    1
    28    15    16    2
    29    15    17    1
    30    17    22   ar
    31    17    18   ar
    32    18    19   ar
    33    18    36    1
    34    19    20   ar
    35    19    37    1
    36    20    21   ar
    37    20    38    1
    38    21    22   ar
    39    21    39    1
    40    22    40    1
    41    24    25    1
    42    24    26    1
    43    25    41    1
    44    25    42    1
    45    25    43    1
    46    26    27    1
    47    27    44    1
    48    27    45    1
    49    27    46    1
@<TRIPOS>SUBSTRUCTURE
     1 <0>         1 TEMP              0 ****  ****    0 ROOT


##########                                Name:    ZINC000464867530
##########                DOCK_Rotatable_Bonds:                   8
##########                         Heavy_Atoms:                  30
##########                    Molecular_Weight:              422.49
##########                DOCK_Rotatable_Bonds:                   8
##########                       Formal_Charge:         -0.00999994
##########                     HBond_Acceptors:                   7
##########                        HBond_Donors:                   0
##########                         Heavy_Atoms:                  30
##########                          Grid_Score:          -31.361971
##########                     Grid_vdw_energy:          -31.166359
##########                      Grid_es_energy:           -0.195612
##########           Internal_energy_repulsive:           31.613945

@<TRIPOS>MOLECULE
ZINC000464867530
 59 62 1 0 0
SMALL
USER_CHARGES


@<TRIPOS>ATOM
      1 C1         -9.5070   -2.1267   61.2305 C.3     1  ZINC000464867530   -0.1500
      2 C2         -9.1672   -1.2525   60.0216 C.3     1  ZINC000464867530   -0.1400
      3 C3         -9.7278   -1.8973   58.7524 C.3     1  ZINC000464867530    0.0900
      4 N4         -9.8277   -0.8879   57.6952 N.am    1  ZINC000464867530   -0.6100
      5 C5         -9.0151    0.3291   57.7654 C.3     1  ZINC000464867530    0.0700
      6 C6         -9.8874    1.4989   58.2256 C.3     1  ZINC000464867530    0.4300
      7 F7        -10.2619    2.2656   57.1170 F       1  ZINC000464867530   -0.1700
      8 F8        -11.0326    1.0055   58.8597 F       1  ZINC000464867530   -0.1800
      9 F9         -9.1651    2.2952   59.1208 F       1  ZINC000464867530   -0.1800
     10 C10       -10.6669   -1.0790   56.6581 C.2     1  ZINC000464867530    0.5300
     11 O11       -10.7494   -0.2434   55.7829 O.2     1  ZINC000464867530   -0.5100
     12 C12       -11.5026   -2.3310   56.5858 C.3     1  ZINC000464867530   -0.1200
     13 H13       -11.0483   -3.1077   57.2012 H       1  ZINC000464867530    0.1000
     14 C14       -11.5809   -2.8098   55.1345 C.3     1  ZINC000464867530   -0.1200
     15 C15       -12.4020   -4.0994   55.0645 C.3     1  ZINC000464867530   -0.1300
     16 C16       -13.8249   -3.8215   55.5594 C.3     1  ZINC000464867530    0.1000
     17 N17       -13.7512   -3.2249   56.9000 N.am    1  ZINC000464867530   -0.6100
     18 C18       -14.4374   -3.7610   57.9288 C.2     1  ZINC000464867530    0.5500
     19 O19       -15.1227   -4.7460   57.7529 O.2     1  ZINC000464867530   -0.5300
     20 C20       -14.3530   -3.1365   59.2977 C.3     1  ZINC000464867530   -0.1700
     21 H21       -13.3555   -3.0957   59.7353 H       1  ZINC000464867530    0.1300
     22 C22       -15.5340   -3.3528   60.2480 C.3     1  ZINC000464867530   -0.1300
     23 C23       -15.3053   -1.9876   59.6075 C.3     1  ZINC000464867530   -0.0600
     24 C24       -16.2641   -1.4389   58.5377 C.3     1  ZINC000464867530   -0.0900
     25 C25       -15.7907    0.0245   58.3942 C.3     1  ZINC000464867530   -0.0800
     26 C26       -15.1488    0.3670   59.7222 C.ar    1  ZINC000464867530   -0.0900
     27 C27       -14.8351    1.5961   60.2760 C.ar    1  ZINC000464867530   -0.1100
     28 C28       -14.2419    1.6677   61.5215 C.ar    1  ZINC000464867530   -0.1100
     29 C29       -13.9602    0.5079   62.2184 C.ar    1  ZINC000464867530   -0.1200
     30 C30       -14.2725   -0.7201   61.6682 C.ar    1  ZINC000464867530   -0.1000
     31 C31       -14.8673   -0.7949   60.4202 C.ar    1  ZINC000464867530   -0.0700
     32 C32       -12.9151   -2.0332   57.0987 C.3     1  ZINC000464867530    0.1300
     33 H33       -10.5894   -2.2206   61.3182 H       1  ZINC000464867530    0.0600
     34 H34        -9.0660   -3.1149   61.0997 H       1  ZINC000464867530    0.0600
     35 H35        -9.1076   -1.6674   62.1347 H       1  ZINC000464867530    0.0600
     36 H36        -9.6082   -0.2644   60.1524 H       1  ZINC000464867530    0.0700
     37 H37        -8.0848   -1.1587   59.9339 H       1  ZINC000464867530    0.0700
     38 H38        -9.0639   -2.6985   58.4282 H       1  ZINC000464867530    0.0900
     39 H39       -10.7169   -2.3061   58.9589 H       1  ZINC000464867530    0.0900
     40 H40        -8.2009    0.1819   58.4751 H       1  ZINC000464867530    0.1300
     41 H41        -8.6034    0.5485   56.7803 H       1  ZINC000464867530    0.1200
     42 H42       -12.0572   -2.0425   54.5240 H       1  ZINC000464867530    0.0800
     43 H43       -10.5749   -2.9990   54.7597 H       1  ZINC000464867530    0.0800
     44 H44       -12.4377   -4.4525   54.0339 H       1  ZINC000464867530    0.0900
     45 H45       -11.9398   -4.8596   55.6942 H       1  ZINC000464867530    0.0700
     46 H46       -14.3200   -3.1294   54.8782 H       1  ZINC000464867530    0.0700
     47 H47       -14.3848   -4.7555   55.6053 H       1  ZINC000464867530    0.0900
     48 H48       -16.3718   -3.9468   59.8829 H       1  ZINC000464867530    0.1100
     49 H49       -15.3134   -3.4535   61.3107 H       1  ZINC000464867530    0.1100
     50 H50       -16.1467   -1.9786   57.5979 H       1  ZINC000464867530    0.0700
     51 H51       -17.2968   -1.4806   58.8840 H       1  ZINC000464867530    0.0800
     52 H52       -15.0611    0.1086   57.5889 H       1  ZINC000464867530    0.0800
     53 H53       -16.6408    0.6800   58.2052 H       1  ZINC000464867530    0.0800
     54 H54       -15.0545    2.5029   59.7319 H       1  ZINC000464867530    0.1200
     55 H55       -13.9984    2.6287   61.9501 H       1  ZINC000464867530    0.1300
     56 H56       -13.4960    0.5615   63.1921 H       1  ZINC000464867530    0.1300
     57 H57       -14.0513   -1.6256   62.2137 H       1  ZINC000464867530    0.1200
     58 H58       -12.8751   -1.7876   58.1599 H       1  ZINC000464867530    0.1000
     59 H59       -13.3356   -1.1949   56.5432 H       1  ZINC000464867530    0.0800
@<TRIPOS>BOND
     1     1     2    1
     2     1    33    1
     3     1    34    1
     4     1    35    1
     5     2     3    1
     6     2    36    1
     7     2    37    1
     8     3     4    1
     9     3    38    1
    10     3    39    1
    11     4     5    1
    12     4    10   am
    13     5     6    1
    14     5    40    1
    15     5    41    1
    16     6     7    1
    17     6     8    1
    18     6     9    1
    19    10    11    2
    20    10    12    1
    21    12    13    1
    22    12    32    1
    23    12    14    1
    24    14    15    1
    25    14    42    1
    26    14    43    1
    27    15    16    1
    28    15    44    1
    29    15    45    1
    30    16    17    1
    31    16    46    1
    32    16    47    1
    33    17    18   am
    34    17    32    1
    35    18    19    2
    36    18    20    1
    37    20    21    1
    38    20    23    1
    39    20    22    1
    40    22    23    1
    41    22    48    1
    42    22    49    1
    43    23    31    1
    44    23    24    1
    45    24    25    1
    46    24    50    1
    47    24    51    1
    48    25    26    1
    49    25    52    1
    50    25    53    1
    51    26    31   ar
    52    26    27   ar
    53    27    28   ar
    54    27    54    1
    55    28    29   ar
    56    28    55    1
    57    29    30   ar
    58    29    56    1
    59    30    31   ar
    60    30    57    1
    61    32    58    1
    62    32    59    1
@<TRIPOS>SUBSTRUCTURE
     1 ZINC000464867530        1 TEMP              0 ****  ****    0 ROOT


##########                                Name:    ZINC000945148121
##########                DOCK_Rotatable_Bonds:                   6
##########                         Heavy_Atoms:                  24
##########                    Molecular_Weight:             332.446
##########                DOCK_Rotatable_Bonds:                   6
##########                       Formal_Charge:           0.0100009
##########                     HBond_Acceptors:                   6
##########                        HBond_Donors:                   2
##########                         Heavy_Atoms:                  24
##########                          Grid_Score:          -31.356413
##########                     Grid_vdw_energy:          -30.290649
##########                      Grid_es_energy:           -1.065764
##########           Internal_energy_repulsive:           19.295685

@<TRIPOS>MOLECULE
ZINC000945148121
 52 54 1 0 0
SMALL
USER_CHARGES


@<TRIPOS>ATOM
      1 O1        -12.7478   -1.6545   50.8702 O.2     1  ZINC000945148121   -0.5100
      2 C2        -13.6639   -1.1943   51.5180 C.2     1  ZINC000945148121    0.5200
      3 C3        -14.7805   -0.4564   50.8253 C.3     1  ZINC000945148121   -0.0500
      4 C4        -14.3136    0.0015   49.4676 C.2     1  ZINC000945148121    0.0100
      5 C5        -14.0323   -0.7936   48.4177 C.2     1  ZINC000945148121   -0.0500
      6 N6        -13.6474    0.0264   47.3917 N.pl3   1  ZINC000945148121   -0.5700
      7 C7        -13.7071    1.2952   47.8504 C.2     1  ZINC000945148121    0.1800
      8 N8        -14.1111    1.2728   49.0912 N.2     1  ZINC000945148121   -0.4700
      9 N9        -13.6864   -1.3476   52.8569 N.am    1  ZINC000945148121   -0.7300
     10 C10       -12.6010   -2.0649   53.5302 C.3     1  ZINC000945148121    0.1500
     11 C11       -11.9995   -1.1737   54.6193 C.3     1  ZINC000945148121   -0.1400
     12 C12       -10.8425   -1.9138   55.2979 C.3     1  ZINC000945148121    0.1100
     13 N13       -11.3308   -3.2121   55.7822 N.am    1  ZINC000945148121   -0.6100
     14 C14       -11.1618   -3.5725   57.0698 C.2     1  ZINC000945148121    0.5200
     15 O15       -11.5682   -4.6476   57.4570 O.2     1  ZINC000945148121   -0.5400
     16 C16       -10.4679   -2.6396   58.0285 C.3     1  ZINC000945148121   -0.1000
     17 C17       -11.3970   -1.5169   58.4032 C.3     1  ZINC000945148121   -0.1200
     18 C18       -10.6529   -0.1874   58.6322 C.3     1  ZINC000945148121   -0.1200
     19 C19        -9.3376   -0.3659   59.4142 C.3     1  ZINC000945148121   -0.1200
     20 C20        -9.4740   -1.3360   60.5564 C.3     1  ZINC000945148121   -0.1200
     21 C21        -9.0386   -2.7326   60.0675 C.3     1  ZINC000945148121   -0.1200
     22 C22       -10.0836   -3.4061   59.3107 C.3     1  ZINC000945148121   -0.1000
     23 C23       -12.0075   -4.1100   54.8361 C.3     1  ZINC000945148121    0.1100
     24 C24       -13.1514   -3.3452   54.1628 C.3     1  ZINC000945148121   -0.1400
     25 H25       -15.6378   -1.1197   50.7101 H       1  ZINC000945148121    0.1000
     26 H26       -15.0686    0.4094   51.4215 H       1  ZINC000945148121    0.1000
     27 H27       -14.0975   -1.8714   48.3908 H       1  ZINC000945148121    0.1800
     28 H28       -13.3816   -0.2517   46.5013 H       1  ZINC000945148121    0.4200
     29 H29       -13.4646    2.1817   47.2833 H       1  ZINC000945148121    0.2100
     30 H30       -14.4212   -0.9829   53.3745 H       1  ZINC000945148121    0.4000
     31 H31       -11.8296   -2.3212   52.8040 H       1  ZINC000945148121    0.0900
     32 H32       -11.6286   -0.2518   54.1713 H       1  ZINC000945148121    0.0800
     33 H33       -12.7639   -0.9374   55.3594 H       1  ZINC000945148121    0.0700
     34 H34       -10.0379   -2.0709   54.5796 H       1  ZINC000945148121    0.0700
     35 H35       -10.4749   -1.3251   56.1384 H       1  ZINC000945148121    0.1000
     36 H36        -9.5702   -2.2352   57.5607 H       1  ZINC000945148121    0.1000
     37 H37       -12.1254   -1.3802   57.6038 H       1  ZINC000945148121    0.0700
     38 H38       -11.9260   -1.7869   59.3172 H       1  ZINC000945148121    0.0700
     39 H39       -10.4284    0.2610   57.6644 H       1  ZINC000945148121    0.0600
     40 H40       -11.3033    0.4882   59.1877 H       1  ZINC000945148121    0.0700
     41 H41        -8.5686   -0.7294   58.7326 H       1  ZINC000945148121    0.0600
     42 H42        -9.0276    0.6018   59.8086 H       1  ZINC000945148121    0.0600
     43 H43        -8.8355   -1.0217   61.3820 H       1  ZINC000945148121    0.0600
     44 H44       -10.5125   -1.3706   60.8855 H       1  ZINC000945148121    0.0700
     45 H45        -8.1574   -2.6263   59.4349 H       1  ZINC000945148121    0.0600
     46 H46        -8.7788   -3.3440   60.9316 H       1  ZINC000945148121    0.0600
     47 H47       -10.9674   -3.5056   59.9407 H       1  ZINC000945148121    0.0700
     48 H48        -9.7345   -4.4015   59.0356 H       1  ZINC000945148121    0.0700
     49 H49       -11.2978   -4.4462   54.0802 H       1  ZINC000945148121    0.0700
     50 H50       -12.4087   -4.9702   55.3720 H       1  ZINC000945148121    0.1000
     51 H51       -13.9050   -3.0884   54.9071 H       1  ZINC000945148121    0.0700
     52 H52       -13.6005   -3.9689   53.3898 H       1  ZINC000945148121    0.0800
@<TRIPOS>BOND
     1     1     2    2
     2     2     3    1
     3     2     9   am
     4     3     4    1
     5     3    25    1
     6     3    26    1
     7     4     8    1
     8     4     5    2
     9     5     6    1
    10     5    27    1
    11     6     7    1
    12     6    28    1
    13     7     8    2
    14     7    29    1
    15     9    10    1
    16     9    30    1
    17    10    24    1
    18    10    11    1
    19    10    31    1
    20    11    12    1
    21    11    32    1
    22    11    33    1
    23    12    13    1
    24    12    34    1
    25    12    35    1
    26    13    14   am
    27    13    23    1
    28    14    15    2
    29    14    16    1
    30    16    22    1
    31    16    17    1
    32    16    36    1
    33    17    18    1
    34    17    37    1
    35    17    38    1
    36    18    19    1
    37    18    39    1
    38    18    40    1
    39    19    20    1
    40    19    41    1
    41    19    42    1
    42    20    21    1
    43    20    43    1
    44    20    44    1
    45    21    22    1
    46    21    45    1
    47    21    46    1
    48    22    47    1
    49    22    48    1
    50    23    24    1
    51    23    49    1
    52    23    50    1
    53    24    51    1
    54    24    52    1
@<TRIPOS>SUBSTRUCTURE
     1 ZINC000945148121        1 TEMP              0 ****  ****    0 ROOT


##########                                Name:    ZINC000002634904
##########                DOCK_Rotatable_Bonds:                   7
##########                         Heavy_Atoms:                  31
##########                    Molecular_Weight:             423.498
##########                DOCK_Rotatable_Bonds:                   7
##########                       Formal_Charge:        -7.45058e-08
##########                     HBond_Acceptors:                   7
##########                        HBond_Donors:                   1
##########                         Heavy_Atoms:                  31
##########                          Grid_Score:          -31.336809
##########                     Grid_vdw_energy:          -30.524775
##########                      Grid_es_energy:           -0.812035
##########           Internal_energy_repulsive:            5.269936

@<TRIPOS>MOLECULE
ZINC000002634904
 48 51 1 0 0
SMALL
USER_CHARGES


@<TRIPOS>ATOM
      1 N1        -14.8341   -1.4221   49.2750 N.1     1  ZINC000002634904   -0.4100
      2 C2        -14.7353   -1.7036   50.3711 C.1     1  ZINC000002634904    0.2500
      3 C3        -14.6107   -2.0585   51.7528 C.ar    1  ZINC000002634904   -0.0400
      4 C4        -13.3937   -1.8767   52.4159 C.ar    1  ZINC000002634904   -0.0500
      5 C5        -13.2775   -2.2191   53.7445 C.ar    1  ZINC000002634904   -0.1400
      6 C6        -14.3696   -2.7453   54.4268 C.ar    1  ZINC000002634904    0.1700
      7 N7        -14.2481   -3.0911   55.7733 N.am    1  ZINC000002634904   -0.6700
      8 C8        -14.3552   -4.3806   56.1502 C.2     1  ZINC000002634904    0.5400
      9 O9        -14.5572   -5.2406   55.3192 O.2     1  ZINC000002634904   -0.5000
     10 C10       -14.2240   -4.7540   57.6044 C.3     1  ZINC000002634904   -0.1700
     11 S11       -15.3474   -3.7354   58.5925 S.3     1  ZINC000002634904    0.1300
     12 C12       -14.1768   -2.7836   59.5028 C.ar    1  ZINC000002634904    0.2100
     13 N13       -14.1201   -2.9070   60.8241 N.ar    1  ZINC000002634904   -0.2900
     14 N14       -13.2815   -2.2323   61.5295 N.ar    1  ZINC000002634904   -0.1600
     15 C15       -12.4404   -1.3843   60.9470 C.ar    1  ZINC000002634904    0.0600
     16 C16       -11.4739   -0.6070   61.7575 C.ar    1  ZINC000002634904   -0.0500
     17 C17       -10.1731   -1.0766   61.9364 C.ar    1  ZINC000002634904   -0.0800
     18 C18        -9.2774   -0.3482   62.6922 C.ar    1  ZINC000002634904   -0.1200
     19 C19        -9.6679    0.8455   63.2724 C.ar    1  ZINC000002634904   -0.1000
     20 C20       -10.9569    1.3163   63.0985 C.ar    1  ZINC000002634904   -0.1200
     21 C21       -11.8598    0.5999   62.3397 C.ar    1  ZINC000002634904   -0.0800
     22 C22       -12.4820   -1.2364   59.5460 C.ar    1  ZINC000002634904    0.2300
     23 C23       -11.5626   -0.3023   58.8553 C.ar    1  ZINC000002634904   -0.0700
     24 C24       -11.7963    1.0717   58.9010 C.ar    1  ZINC000002634904   -0.0700
     25 C25       -10.9362    1.9369   58.2562 C.ar    1  ZINC000002634904   -0.1200
     26 C26        -9.8439    1.4436   57.5654 C.ar    1  ZINC000002634904   -0.0900
     27 C27        -9.6070    0.0815   57.5160 C.ar    1  ZINC000002634904   -0.1200
     28 C28       -10.4568   -0.7931   58.1618 C.ar    1  ZINC000002634904   -0.0700
     29 N29       -13.3622   -1.9589   58.8569 N.ar    1  ZINC000002634904   -0.4400
     30 C30       -15.5824   -2.9273   53.7704 C.ar    1  ZINC000002634904   -0.1200
     31 C31       -15.7074   -2.5821   52.4433 C.ar    1  ZINC000002634904   -0.0500
     32 H32       -12.5453   -1.4686   51.8865 H       1  ZINC000002634904    0.1400
     33 H33       -12.3374   -2.0793   54.2573 H       1  ZINC000002634904    0.1400
     34 H34       -14.0864   -2.4033   56.4380 H       1  ZINC000002634904    0.4200
     35 H35       -14.4787   -5.8059   57.7337 H       1  ZINC000002634904    0.1300
     36 H36       -13.1981   -4.5856   57.9316 H       1  ZINC000002634904    0.1300
     37 H37        -9.8674   -2.0086   61.4845 H       1  ZINC000002634904    0.1300
     38 H38        -8.2698   -0.7108   62.8314 H       1  ZINC000002634904    0.1300
     39 H39        -8.9636    1.4117   63.8637 H       1  ZINC000002634904    0.1300
     40 H40       -11.2561    2.2489   63.5540 H       1  ZINC000002634904    0.1300
     41 H41       -12.8658    0.9688   62.2043 H       1  ZINC000002634904    0.1200
     42 H42       -12.6490    1.4580   59.4398 H       1  ZINC000002634904    0.1300
     43 H43       -11.1164    3.0012   58.2906 H       1  ZINC000002634904    0.1300
     44 H44        -9.1734    2.1247   57.0622 H       1  ZINC000002634904    0.1300
     45 H45        -8.7528   -0.2977   56.9749 H       1  ZINC000002634904    0.1300
     46 H46       -10.2709   -1.8563   58.1226 H       1  ZINC000002634904    0.1300
     47 H47       -16.4281   -3.3357   54.3035 H       1  ZINC000002634904    0.1500
     48 H48       -16.6494   -2.7232   51.9343 H       1  ZINC000002634904    0.1400
@<TRIPOS>BOND
     1     1     2    3
     2     2     3    1
     3     3    31   ar
     4     3     4   ar
     5     4     5   ar
     6     4    32    1
     7     5     6   ar
     8     5    33    1
     9     6     7    1
    10     6    30   ar
    11     7     8   am
    12     7    34    1
    13     8     9    2
    14     8    10    1
    15    10    11    1
    16    10    35    1
    17    10    36    1
    18    11    12    1
    19    12    29   ar
    20    12    13   ar
    21    13    14   ar
    22    14    15   ar
    23    15    16    1
    24    15    22   ar
    25    16    21   ar
    26    16    17   ar
    27    17    18   ar
    28    17    37    1
    29    18    19   ar
    30    18    38    1
    31    19    20   ar
    32    19    39    1
    33    20    21   ar
    34    20    40    1
    35    21    41    1
    36    22    23    1
    37    22    29   ar
    38    23    28   ar
    39    23    24   ar
    40    24    25   ar
    41    24    42    1
    42    25    26   ar
    43    25    43    1
    44    26    27   ar
    45    26    44    1
    46    27    28   ar
    47    27    45    1
    48    28    46    1
    49    30    31   ar
    50    30    47    1
    51    31    48    1
@<TRIPOS>SUBSTRUCTURE
     1 ZINC000002634904        1 TEMP              0 ****  ****    0 ROOT


##########                                Name:    ZINC001312809190
##########                DOCK_Rotatable_Bonds:                   6
##########                         Heavy_Atoms:                  29
##########                    Molecular_Weight:             395.501
##########                DOCK_Rotatable_Bonds:                   6
##########                       Formal_Charge:           0.0199995
##########                     HBond_Acceptors:                   6
##########                        HBond_Donors:                   1
##########                         Heavy_Atoms:                  29
##########                          Grid_Score:          -31.335052
##########                     Grid_vdw_energy:          -29.174625
##########                      Grid_es_energy:           -2.160428
##########           Internal_energy_repulsive:           25.326939

@<TRIPOS>MOLECULE
ZINC001312809190
 58 61 1 0 0
SMALL
USER_CHARGES


@<TRIPOS>ATOM
      1 C1        -13.9139   -0.0301   51.3458 C.3     1  ZINC001312809190    0.0300
      2 O2        -12.8389   -0.9714   51.3679 O.3     1  ZINC001312809190   -0.3200
      3 C3        -12.9536   -2.0186   52.2266 C.ar    1  ZINC001312809190    0.1300
      4 C4        -11.9466   -2.9696   52.3008 C.ar    1  ZINC001312809190   -0.2100
      5 C5        -12.0654   -4.0330   53.1749 C.ar    1  ZINC001312809190   -0.0800
      6 C6        -13.1868   -4.1500   53.9747 C.ar    1  ZINC001312809190   -0.1300
      7 C7        -14.1924   -3.2034   53.9022 C.ar    1  ZINC001312809190   -0.0500
      8 C8        -15.4138   -3.3342   54.7752 C.3     1  ZINC001312809190    0.1200
      9 H9        -15.4347   -4.3271   55.2244 H       1  ZINC001312809190    0.0500
     10 C10       -16.6710   -3.1315   53.9270 C.3     1  ZINC001312809190   -0.1400
     11 N11       -15.3692   -2.3181   55.8352 N.3     1  ZINC001312809190   -0.5300
     12 C12       -13.9913   -2.0947   56.2927 C.3     1  ZINC001312809190    0.0300
     13 C13       -13.9644   -0.9081   57.2620 C.3     1  ZINC001312809190    0.1400
     14 N14       -14.9424   -1.1567   58.3320 N.am    1  ZINC001312809190   -0.6300
     15 C15       -14.5905   -1.0519   59.6288 C.2     1  ZINC001312809190    0.7100
     16 O16       -15.4121   -1.2610   60.5004 O.2     1  ZINC001312809190   -0.5800
     17 N17       -13.3280   -0.7154   59.9594 N.am    1  ZINC001312809190   -0.7300
     18 C18       -12.9455   -0.6015   61.3689 C.3     1  ZINC001312809190    0.1800
     19 H19       -13.5556   -1.2571   61.9903 H       1  ZINC001312809190    0.1200
     20 C20       -11.4699   -0.8965   61.5557 C.ar    1  ZINC001312809190   -0.1900
     21 C21       -10.6606   -1.9030   61.0781 C.ar    1  ZINC001312809190   -0.0500
     22 C22        -9.3167   -1.9248   61.4079 C.ar    1  ZINC001312809190   -0.1500
     23 C23        -8.7922   -0.9341   62.2168 C.ar    1  ZINC001312809190   -0.0800
     24 C24        -9.6021    0.0733   62.6994 C.ar    1  ZINC001312809190   -0.1400
     25 C25       -10.9559    0.1007   62.3751 C.ar    1  ZINC001312809190    0.1100
     26 O26       -11.9262    0.9786   62.7509 O.3     1  ZINC001312809190   -0.2900
     27 C27       -13.0428    0.8652   61.8513 C.3     1  ZINC001312809190    0.0800
     28 H28       -12.9356    1.5547   61.0140 H       1  ZINC001312809190    0.0900
     29 C29       -14.3603    1.1124   62.5889 C.3     1  ZINC001312809190   -0.1500
     30 C30       -16.3148   -1.5221   57.9493 C.3     1  ZINC001312809190    0.1200
     31 C31       -16.2491   -2.6844   56.9530 C.3     1  ZINC001312809190    0.0400
     32 C32       -14.0756   -2.1351   53.0345 C.ar    1  ZINC001312809190   -0.1500
     33 H33       -13.6961    0.7530   50.6196 H       1  ZINC001312809190    0.1000
     34 H34       -14.8365   -0.5387   51.0660 H       1  ZINC001312809190    0.0600
     35 H35       -14.0289    0.4134   52.3348 H       1  ZINC001312809190    0.0600
     36 H36       -11.0706   -2.8792   51.6757 H       1  ZINC001312809190    0.1300
     37 H37       -11.2816   -4.7737   53.2331 H       1  ZINC001312809190    0.1300
     38 H38       -13.2780   -4.9820   54.6571 H       1  ZINC001312809190    0.1300
     39 H39       -16.6501   -2.1385   53.4779 H       1  ZINC001312809190    0.0700
     40 H40       -16.7041   -3.8853   53.1405 H       1  ZINC001312809190    0.0600
     41 H41       -17.5544   -3.2261   54.5585 H       1  ZINC001312809190    0.0600
     42 H42       -13.6276   -2.9879   56.8009 H       1  ZINC001312809190    0.0400
     43 H43       -13.3539   -1.8787   55.4353 H       1  ZINC001312809190    0.1000
     44 H44       -12.9678   -0.8095   57.6923 H       1  ZINC001312809190    0.1000
     45 H45       -14.2284    0.0056   56.7295 H       1  ZINC001312809190    0.0700
     46 H46       -12.6725   -0.5487   59.2640 H       1  ZINC001312809190    0.4000
     47 H47       -11.0745   -2.6753   60.4467 H       1  ZINC001312809190    0.1200
     48 H48        -8.6799   -2.7133   61.0347 H       1  ZINC001312809190    0.1300
     49 H49        -7.7431   -0.9489   62.4727 H       1  ZINC001312809190    0.1300
     50 H50        -9.1844    0.8433   63.3311 H       1  ZINC001312809190    0.1300
     51 H51       -14.3648    2.1236   62.9957 H       1  ZINC001312809190    0.0800
     52 H52       -15.1926    0.9962   61.8948 H       1  ZINC001312809190    0.0800
     53 H53       -14.4620    0.3934   63.4019 H       1  ZINC001312809190    0.0700
     54 H54       -16.8721   -1.8292   58.8342 H       1  ZINC001312809190    0.0800
     55 H55       -16.8046   -0.6673   57.4829 H       1  ZINC001312809190    0.0800
     56 H56       -17.2492   -2.8960   56.5745 H       1  ZINC001312809190    0.0900
     57 H57       -15.8539   -3.5693   57.4520 H       1  ZINC001312809190    0.0400
     58 H58       -14.8611   -1.3960   52.9784 H       1  ZINC001312809190    0.1300
@<TRIPOS>BOND
     1     1     2    1
     2     1    33    1
     3     1    34    1
     4     1    35    1
     5     2     3    1
     6     3    32   ar
     7     3     4   ar
     8     4     5   ar
     9     4    36    1
    10     5     6   ar
    11     5    37    1
    12     6     7   ar
    13     6    38    1
    14     7     8    1
    15     7    32   ar
    16     8     9    1
    17     8    10    1
    18     8    11    1
    19    10    39    1
    20    10    40    1
    21    10    41    1
    22    11    31    1
    23    11    12    1
    24    12    13    1
    25    12    42    1
    26    12    43    1
    27    13    14    1
    28    13    44    1
    29    13    45    1
    30    14    15   am
    31    14    30    1
    32    15    16    2
    33    15    17   am
    34    17    18    1
    35    17    46    1
    36    18    19    1
    37    18    27    1
    38    18    20    1
    39    20    25   ar
    40    20    21   ar
    41    21    22   ar
    42    21    47    1
    43    22    23   ar
    44    22    48    1
    45    23    24   ar
    46    23    49    1
    47    24    25   ar
    48    24    50    1
    49    25    26    1
    50    26    27    1
    51    27    28    1
    52    27    29    1
    53    29    51    1
    54    29    52    1
    55    29    53    1
    56    30    31    1
    57    30    54    1
    58    30    55    1
    59    31    56    1
    60    31    57    1
    61    32    58    1
@<TRIPOS>SUBSTRUCTURE
     1 ZINC001312809190        1 TEMP              0 ****  ****    0 ROOT


##########                                Name:    ZINC000928803822
##########                DOCK_Rotatable_Bonds:                   7
##########                         Heavy_Atoms:                  21
##########                    Molecular_Weight:             364.165
##########                DOCK_Rotatable_Bonds:                   7
##########                       Formal_Charge:         -0.00999978
##########                     HBond_Acceptors:                   7
##########                        HBond_Donors:                   1
##########                         Heavy_Atoms:                  21
##########                          Grid_Score:          -31.326376
##########                     Grid_vdw_energy:          -25.947916
##########                      Grid_es_energy:           -5.378460
##########           Internal_energy_repulsive:           12.662928

@<TRIPOS>MOLECULE
ZINC000928803822
 34 34 1 0 0
SMALL
USER_CHARGES


@<TRIPOS>ATOM
      1 C1         -9.0316   -0.6802   59.0224 C.3     1  ZINC000928803822    0.0900
      2 N2         -9.3454   -1.5205   60.1808 N.pl3   1  ZINC000928803822   -0.6300
      3 C3         -9.2004   -2.9755   60.0909 C.3     1  ZINC000928803822    0.0900
      4 C4         -9.7828   -0.9342   61.3710 C.ar    1  ZINC000928803822    0.2200
      5 C5        -11.1214   -0.5953   61.5276 C.ar    1  ZINC000928803822   -0.1500
      6 C6        -11.5593   -0.0146   62.7043 C.ar    1  ZINC000928803822   -0.0500
      7 Br7       -13.3828    0.4425   62.9081 Br      1  ZINC000928803822   -0.0400
      8 C8        -10.6691    0.2320   63.7306 C.ar    1  ZINC000928803822   -0.1200
      9 C9         -9.3225   -0.1051   63.5826 C.ar    1  ZINC000928803822   -0.0800
     10 C10        -8.3672    0.1578   64.6800 C.2     1  ZINC000928803822    0.5700
     11 O11        -8.3339   -0.5786   65.6464 O.2     1  ZINC000928803822   -0.5100
     12 N12        -7.5331    1.2142   64.6088 N.am    1  ZINC000928803822   -0.7200
     13 C13        -6.5877    1.4757   65.6969 C.3     1  ZINC000928803822    0.1100
     14 H14        -6.3616    0.5431   66.2138 H       1  ZINC000928803822    0.1400
     15 C15        -7.2070    2.4681   66.6830 C.3     1  ZINC000928803822   -0.0300
     16 C16        -6.2596    2.7262   67.7796 C.1     1  ZINC000928803822    0.2000
     17 N17        -5.5284    2.9254   68.6259 N.1     1  ZINC000928803822   -0.4000
     18 C18        -5.2985    2.0655   65.1217 C.3     1  ZINC000928803822    0.4400
     19 F19        -4.3957    2.3152   66.1608 F       1  ZINC000928803822   -0.1800
     20 F20        -4.7322    1.1580   64.2200 F       1  ZINC000928803822   -0.1700
     21 F21        -5.5886    3.2625   64.4583 F       1  ZINC000928803822   -0.1600
     22 C22        -8.8823   -0.6957   62.3984 C.ar    1  ZINC000928803822   -0.1200
     23 H23        -9.9274   -0.5489   58.4154 H       1  ZINC000928803822    0.0600
     24 H24        -8.6787    0.2928   59.3643 H       1  ZINC000928803822    0.0700
     25 H25        -8.2552   -1.1591   58.4257 H       1  ZINC000928803822    0.0700
     26 H26        -8.1909   -3.2591   60.3883 H       1  ZINC000928803822    0.0500
     27 H27        -9.9222   -3.4541   60.7527 H       1  ZINC000928803822    0.0700
     28 H28        -9.3803   -3.2959   59.0647 H       1  ZINC000928803822    0.0700
     29 H29       -11.8219   -0.7855   60.7280 H       1  ZINC000928803822    0.1400
     30 H30       -11.0146    0.6858   64.6477 H       1  ZINC000928803822    0.1300
     31 H31        -7.5588    1.8012   63.8370 H       1  ZINC000928803822    0.4100
     32 H32        -7.4289    3.4024   66.1671 H       1  ZINC000928803822    0.1400
     33 H33        -8.1279    2.0499   67.0893 H       1  ZINC000928803822    0.1300
     34 H34        -7.8417   -0.9585   62.2784 H       1  ZINC000928803822    0.1500
@<TRIPOS>BOND
     1     1     2    1
     2     1    23    1
     3     1    24    1
     4     1    25    1
     5     2     3    1
     6     2     4    1
     7     3    26    1
     8     3    27    1
     9     3    28    1
    10     4    22   ar
    11     4     5   ar
    12     5     6   ar
    13     5    29    1
    14     6     7    1
    15     6     8   ar
    16     8     9   ar
    17     8    30    1
    18     9    10    1
    19     9    22   ar
    20    10    11    2
    21    10    12   am
    22    12    13    1
    23    12    31    1
    24    13    14    1
    25    13    15    1
    26    13    18    1
    27    15    16    1
    28    15    32    1
    29    15    33    1
    30    16    17    3
    31    18    19    1
    32    18    20    1
    33    18    21    1
    34    22    34    1
@<TRIPOS>SUBSTRUCTURE
     1 ZINC000928803822        1 TEMP              0 ****  ****    0 ROOT


##########                                Name:    ZINC000225856071
##########                DOCK_Rotatable_Bonds:                   6
##########                         Heavy_Atoms:                  29
##########                    Molecular_Weight:             409.549
##########                DOCK_Rotatable_Bonds:                   6
##########                       Formal_Charge:         -0.00999989
##########                     HBond_Acceptors:                   5
##########                        HBond_Donors:                   1
##########                         Heavy_Atoms:                  29
##########                          Grid_Score:          -31.320242
##########                     Grid_vdw_energy:          -31.958372
##########                      Grid_es_energy:            0.638130
##########           Internal_energy_repulsive:           27.976473

@<TRIPOS>MOLECULE
ZINC000225856071
 56 58 1 0 0
SMALL
USER_CHARGES


@<TRIPOS>ATOM
      1 C1        -17.3256   -2.3273   58.8337 C.3     1  ZINC000225856071    0.0200
      2 O2        -16.3210   -3.2213   59.3167 O.3     1  ZINC000225856071   -0.3100
      3 C3        -15.0681   -3.0723   58.8116 C.ar    1  ZINC000225856071    0.1900
      4 C4        -14.8095   -3.3973   57.4882 C.ar    1  ZINC000225856071   -0.2300
      5 C5        -13.5350   -3.2445   56.9769 C.ar    1  ZINC000225856071    0.0700
      6 C6        -13.2534   -3.5973   55.5391 C.3     1  ZINC000225856071   -0.1800
      7 C7        -12.5181   -2.7678   57.7829 C.ar    1  ZINC000225856071   -0.7100
      8 S8        -10.8941   -2.5736   57.1277 S.o2    1  ZINC000225856071    2.7000
      9 O9        -10.3191   -3.8725   57.0887 O.2     1  ZINC000225856071   -0.9600
     10 O10       -11.0208   -1.7449   55.9804 O.2     1  ZINC000225856071   -0.9500
     11 N11       -10.0189   -1.7078   58.2355 N.am    1  ZINC000225856071   -1.1100
     12 C12       -10.4486   -0.3601   58.6166 C.3     1  ZINC000225856071    0.2400
     13 H13       -11.5253   -0.2681   58.4740 H       1  ZINC000225856071    0.1100
     14 C14        -9.7396    0.6549   57.7576 C.ar    1  ZINC000225856071   -0.1000
     15 C15       -10.4647    1.6306   57.0993 C.ar    1  ZINC000225856071   -0.1000
     16 C16        -9.8143    2.5617   56.3114 C.ar    1  ZINC000225856071   -0.1200
     17 C17        -8.4387    2.5175   56.1821 C.ar    1  ZINC000225856071   -0.1100
     18 C18        -7.7135    1.5425   56.8411 C.ar    1  ZINC000225856071   -0.1100
     19 C19        -8.3635    0.6140   57.6325 C.ar    1  ZINC000225856071   -0.1000
     20 C20       -10.1110   -0.1160   60.0649 C.ar    1  ZINC000225856071   -0.0900
     21 C21        -9.1640   -0.9007   60.6954 C.ar    1  ZINC000225856071   -0.1000
     22 C22        -8.8543   -0.6767   62.0242 C.ar    1  ZINC000225856071   -0.1200
     23 C23        -9.4914    0.3321   62.7217 C.ar    1  ZINC000225856071   -0.0800
     24 C24        -9.1542    0.5759   64.1702 C.3     1  ZINC000225856071   -0.1200
     25 C25       -10.4379    1.1179   62.0906 C.ar    1  ZINC000225856071   -0.1200
     26 C26       -10.7447    0.8965   60.7613 C.ar    1  ZINC000225856071   -0.0600
     27 C27       -11.7762    1.7530   60.0733 C.3     1  ZINC000225856071   -0.1300
     28 C28       -12.7735   -2.4428   59.1026 C.ar    1  ZINC000225856071    0.0200
     29 C29       -14.0468   -2.5896   59.6173 C.ar    1  ZINC000225856071   -0.1400
     30 C30       -14.3245   -2.2347   61.0554 C.3     1  ZINC000225856071   -0.1100
     31 H31       -17.4289   -2.4452   57.7550 H       1  ZINC000225856071    0.0600
     32 H32       -18.2763   -2.5539   59.3166 H       1  ZINC000225856071    0.1000
     33 H33       -17.0383   -1.3007   59.0612 H       1  ZINC000225856071    0.0600
     34 H34       -15.6036   -3.7696   56.8579 H       1  ZINC000225856071    0.1400
     35 H35       -13.4049   -2.7181   54.9128 H       1  ZINC000225856071    0.0900
     36 H36       -12.2224   -3.9379   55.4438 H       1  ZINC000225856071    0.1000
     37 H37       -13.9291   -4.3910   55.2206 H       1  ZINC000225856071    0.0800
     38 H38        -9.2220   -2.0930   58.6320 H       1  ZINC000225856071    0.4200
     39 H39       -11.5394    1.6651   57.2004 H       1  ZINC000225856071    0.1200
     40 H40       -10.3809    3.3234   55.7964 H       1  ZINC000225856071    0.1200
     41 H41        -7.9306    3.2445   55.5659 H       1  ZINC000225856071    0.1200
     42 H42        -6.6389    1.5078   56.7398 H       1  ZINC000225856071    0.1200
     43 H43        -7.7969   -0.1478   58.1474 H       1  ZINC000225856071    0.1200
     44 H44        -8.6661   -1.6890   60.1503 H       1  ZINC000225856071    0.1200
     45 H45        -8.1147   -1.2903   62.5170 H       1  ZINC000225856071    0.1200
     46 H46        -8.3374    1.2945   64.2370 H       1  ZINC000225856071    0.0700
     47 H47       -10.0294    0.9718   64.6853 H       1  ZINC000225856071    0.0700
     48 H48        -8.8519   -0.3622   64.6356 H       1  ZINC000225856071    0.0700
     49 H49       -10.9354    1.9064   62.6356 H       1  ZINC000225856071    0.1200
     50 H50       -11.2895    2.6205   59.6276 H       1  ZINC000225856071    0.0800
     51 H51       -12.2691    1.1724   59.2935 H       1  ZINC000225856071    0.0700
     52 H52       -12.5163    2.0857   60.8012 H       1  ZINC000225856071    0.0700
     53 H53       -11.9775   -2.0702   59.7303 H       1  ZINC000225856071    0.1500
     54 H54       -14.6160   -1.1864   61.1211 H       1  ZINC000225856071    0.0700
     55 H55       -15.1320   -2.8608   61.4347 H       1  ZINC000225856071    0.0700
     56 H56       -13.4263   -2.4000   61.6504 H       1  ZINC000225856071    0.0700
@<TRIPOS>BOND
     1     1     2    1
     2     1    31    1
     3     1    32    1
     4     1    33    1
     5     2     3    1
     6     3    29   ar
     7     3     4   ar
     8     4     5   ar
     9     4    34    1
    10     5     6    1
    11     5     7   ar
    12     6    35    1
    13     6    36    1
    14     6    37    1
    15     7     8    1
    16     7    28   ar
    17     8     9    2
    18     8    10    2
    19     8    11   am
    20    11    12    1
    21    11    38    1
    22    12    13    1
    23    12    14    1
    24    12    20    1
    25    14    19   ar
    26    14    15   ar
    27    15    16   ar
    28    15    39    1
    29    16    17   ar
    30    16    40    1
    31    17    18   ar
    32    17    41    1
    33    18    19   ar
    34    18    42    1
    35    19    43    1
    36    20    26   ar
    37    20    21   ar
    38    21    22   ar
    39    21    44    1
    40    22    23   ar
    41    22    45    1
    42    23    24    1
    43    23    25   ar
    44    24    46    1
    45    24    47    1
    46    24    48    1
    47    25    26   ar
    48    25    49    1
    49    26    27    1
    50    27    50    1
    51    27    51    1
    52    27    52    1
    53    28    29   ar
    54    28    53    1
    55    29    30    1
    56    30    54    1
    57    30    55    1
    58    30    56    1
@<TRIPOS>SUBSTRUCTURE
     1 ZINC000225856071        1 TEMP              0 ****  ****    0 ROOT


##########                                Name:    ZINC001300804061
##########                DOCK_Rotatable_Bonds:                   5
##########                         Heavy_Atoms:                  27
##########                    Molecular_Weight:              390.55
##########                DOCK_Rotatable_Bonds:                   5
##########                       Formal_Charge:                0.01
##########                     HBond_Acceptors:                   7
##########                        HBond_Donors:                   0
##########                         Heavy_Atoms:                  27
##########                          Grid_Score:          -31.317495
##########                     Grid_vdw_energy:          -30.720818
##########                      Grid_es_energy:           -0.596678
##########           Internal_energy_repulsive:           24.485794

@<TRIPOS>MOLECULE
ZINC001300804061
 57 60 1 0 0
SMALL
USER_CHARGES


@<TRIPOS>ATOM
      1 C1        -13.1678    1.4194   52.5054 C.3     1  ZINC001300804061    0.0300
      2 O2        -12.3286    0.2769   52.6863 O.3     1  ZINC001300804061   -0.3800
      3 C3        -12.8769   -0.7152   53.5563 C.3     1  ZINC001300804061    0.1000
      4 H4        -13.7584   -0.3138   54.0562 H       1  ZINC001300804061    0.0700
      5 C5        -11.8323   -1.1113   54.6021 C.3     1  ZINC001300804061    0.0500
      6 N6        -12.3880   -2.1461   55.4835 N.3     1  ZINC001300804061   -0.4600
      7 C7        -11.5175   -2.4343   56.5208 C.2     1  ZINC001300804061    0.3600
      8 N8        -10.6310   -3.4029   56.5467 N.2     1  ZINC001300804061   -0.3000
      9 N9         -9.9893   -3.3861   57.6600 N.2     1  ZINC001300804061   -0.2500
     10 C10       -10.4279   -2.4029   58.4151 C.2     1  ZINC001300804061    0.2600
     11 C11        -9.9486   -2.0524   59.7614 C.2     1  ZINC001300804061    0.0400
     12 C12        -9.0869   -2.7862   60.5201 C.2     1  ZINC001300804061   -0.1300
     13 C13        -8.9067   -2.0807   61.7255 C.2     1  ZINC001300804061   -0.2100
     14 C14        -9.6572   -0.9639   61.6464 C.2     1  ZINC001300804061    0.0100
     15 C15        -9.7727    0.0938   62.7136 C.3     1  ZINC001300804061   -0.0800
     16 O16       -10.2808   -0.9468   60.4567 O.3     1  ZINC001300804061   -0.1700
     17 N17       -11.4172   -1.7600   57.7044 N.pl3   1  ZINC001300804061   -0.4600
     18 C18       -12.2037   -0.6005   58.1323 C.3     1  ZINC001300804061    0.1200
     19 C19       -13.5146   -1.0771   58.7608 C.3     1  ZINC001300804061   -0.1000
     20 H20       -14.1049   -0.2129   59.0657 H       1  ZINC001300804061    0.0900
     21 C21       -13.2072   -1.9372   59.9830 C.3     1  ZINC001300804061   -0.1200
     22 C22       -14.4762   -2.2078   60.7858 C.3     1  ZINC001300804061   -0.1200
     23 C23       -15.3875   -3.1666   60.0152 C.3     1  ZINC001300804061   -0.0800
     24 S24       -15.8983   -2.3708   58.4631 S.3     1  ZINC001300804061   -0.2600
     25 C25       -14.3029   -1.8945   57.7340 C.3     1  ZINC001300804061   -0.0700
     26 C26       -12.7279   -3.3593   54.7292 C.3     1  ZINC001300804061    0.0600
     27 C27       -13.7992   -3.0304   53.6871 C.3     1  ZINC001300804061   -0.1100
     28 C28       -13.2698   -1.9499   52.7403 C.3     1  ZINC001300804061   -0.0900
     29 H29       -12.3961   -2.3274   52.2089 H       1  ZINC001300804061    0.0800
     30 C30       -14.3584   -1.5748   51.7327 C.3     1  ZINC001300804061   -0.1400
     31 H31       -14.1200    1.1065   52.0768 H       1  ZINC001300804061    0.0400
     32 H32       -13.3428    1.8978   53.4690 H       1  ZINC001300804061    0.0400
     33 H33       -12.6808    2.1251   51.8325 H       1  ZINC001300804061    0.0900
     34 H34       -10.9454   -1.4991   54.1010 H       1  ZINC001300804061    0.0700
     35 H35       -11.5616   -0.2371   55.1943 H       1  ZINC001300804061    0.0800
     36 H36        -8.6308   -3.7271   60.2496 H       1  ZINC001300804061    0.1600
     37 H37        -8.2844   -2.3784   62.5565 H       1  ZINC001300804061    0.1600
     38 H38        -9.0065    0.8531   62.5570 H       1  ZINC001300804061    0.0900
     39 H39       -10.7585    0.5561   62.6618 H       1  ZINC001300804061    0.0800
     40 H40        -9.6366   -0.3628   63.6940 H       1  ZINC001300804061    0.0900
     41 H41       -11.6364   -0.0273   58.8657 H       1  ZINC001300804061    0.1100
     42 H42       -12.4221    0.0287   57.2693 H       1  ZINC001300804061    0.1000
     43 H43       -12.7800   -2.8852   59.6564 H       1  ZINC001300804061    0.0700
     44 H44       -12.4865   -1.4182   60.6150 H       1  ZINC001300804061    0.0800
     45 H45       -14.2099   -2.6534   61.7443 H       1  ZINC001300804061    0.0800
     46 H46       -15.0022   -1.2689   60.9587 H       1  ZINC001300804061    0.0800
     47 H47       -14.8459   -4.0861   59.7932 H       1  ZINC001300804061    0.0800
     48 H48       -16.2682   -3.3952   60.6155 H       1  ZINC001300804061    0.1100
     49 H49       -14.4744   -1.2904   56.8431 H       1  ZINC001300804061    0.1000
     50 H50       -13.7411   -2.7899   57.4680 H       1  ZINC001300804061    0.0900
     51 H51       -11.8368   -3.7366   54.2274 H       1  ZINC001300804061    0.0600
     52 H52       -13.1078   -4.1180   55.4137 H       1  ZINC001300804061    0.0800
     53 H53       -14.0400   -3.9277   53.1171 H       1  ZINC001300804061    0.0800
     54 H54       -14.6956   -2.6662   54.1892 H       1  ZINC001300804061    0.0800
     55 H55       -15.2307   -1.1953   52.2647 H       1  ZINC001300804061    0.0500
     56 H56       -13.9806   -0.8057   51.0591 H       1  ZINC001300804061    0.0600
     57 H57       -14.6393   -2.4563   51.1564 H       1  ZINC001300804061    0.0600
@<TRIPOS>BOND
     1     1     2    1
     2     1    31    1
     3     1    32    1
     4     1    33    1
     5     2     3    1
     6     3     4    1
     7     3    28    1
     8     3     5    1
     9     5     6    1
    10     5    34    1
    11     5    35    1
    12     6     7    1
    13     6    26    1
    14     7    17    1
    15     7     8    2
    16     8     9    1
    17     9    10    2
    18    10    11    1
    19    10    17    1
    20    11    16    1
    21    11    12    2
    22    12    13    1
    23    12    36    1
    24    13    14    2
    25    13    37    1
    26    14    15    1
    27    14    16    1
    28    15    38    1
    29    15    39    1
    30    15    40    1
    31    17    18    1
    32    18    19    1
    33    18    41    1
    34    18    42    1
    35    19    20    1
    36    19    25    1
    37    19    21    1
    38    21    22    1
    39    21    43    1
    40    21    44    1
    41    22    23    1
    42    22    45    1
    43    22    46    1
    44    23    24    1
    45    23    47    1
    46    23    48    1
    47    24    25    1
    48    25    49    1
    49    25    50    1
    50    26    27    1
    51    26    51    1
    52    26    52    1
    53    27    28    1
    54    27    53    1
    55    27    54    1
    56    28    29    1
    57    28    30    1
    58    30    55    1
    59    30    56    1
    60    30    57    1
@<TRIPOS>SUBSTRUCTURE
     1 ZINC001300804061        1 TEMP              0 ****  ****    0 ROOT


##########                                Name:    ZINC000564088286
##########                DOCK_Rotatable_Bonds:                   6
##########                         Heavy_Atoms:                  25
##########                    Molecular_Weight:             398.934
##########                DOCK_Rotatable_Bonds:                   6
##########                       Formal_Charge:               -0.05
##########                     HBond_Acceptors:                   8
##########                        HBond_Donors:                   1
##########                         Heavy_Atoms:                  25
##########                          Grid_Score:          -31.306400
##########                     Grid_vdw_energy:          -31.420683
##########                      Grid_es_energy:            0.114283
##########           Internal_energy_repulsive:           15.325546

@<TRIPOS>MOLECULE
ZINC000564088286
 44 46 1 0 0
SMALL
USER_CHARGES


@<TRIPOS>ATOM
      1 C1        -10.6478    1.3348   53.4811 C.3     1  ZINC000564088286   -0.1600
      2 C2        -10.4848   -0.0665   52.8887 C.3     1  ZINC000564088286    0.1100
      3 N3        -11.7469   -0.4872   52.2754 N.am    1  ZINC000564088286   -1.1200
      4 S4        -12.0944   -2.0988   52.1183 S.o2    1  ZINC000564088286    2.7000
      5 O5        -13.4294   -2.1763   51.6375 O.2     1  ZINC000564088286   -0.9600
      6 O6        -10.9897   -2.6835   51.4424 O.2     1  ZINC000564088286   -0.9600
      7 C7        -12.1086   -2.7896   53.7391 C.ar    1  ZINC000564088286   -0.6800
      8 C8        -13.2834   -2.8206   54.4670 C.ar    1  ZINC000564088286   -0.0200
      9 C9        -13.2945   -3.3626   55.7386 C.ar    1  ZINC000564088286   -0.1300
     10 C10       -12.1309   -3.8741   56.2822 C.ar    1  ZINC000564088286   -0.0100
     11 C11       -12.1430   -4.4645   57.6687 C.3     1  ZINC000564088286   -0.1100
     12 C12       -10.9075   -4.0262   58.4120 C.2     1  ZINC000564088286    0.5200
     13 O13       -10.0303   -4.8274   58.6558 O.2     1  ZINC000564088286   -0.5200
     14 N14       -10.7773   -2.7438   58.8057 N.am    1  ZINC000564088286   -0.6200
     15 C15       -11.8288   -1.7561   58.5202 C.3     1  ZINC000564088286    0.1200
     16 C16       -12.4290   -1.2845   59.8483 C.3     1  ZINC000564088286   -0.0700
     17 C17       -11.3072   -0.9891   60.8212 C.2     1  ZINC000564088286   -0.1600
     18 C18       -10.0423   -1.4339   60.7019 C.2     1  ZINC000564088286   -0.1200
     19 C19        -9.2042   -1.0285   61.7364 C.2     1  ZINC000564088286   -0.1100
     20 C20        -9.7694   -0.2675   62.6699 C.2     1  ZINC000564088286   -0.1500
     21 Cl21       -8.9578    0.3766   64.0628 Cl      1  ZINC000564088286   -0.0100
     22 S22       -11.4630   -0.0136   62.2767 S.3     1  ZINC000564088286    0.1600
     23 C23        -9.5834   -2.2969   59.5372 C.3     1  ZINC000564088286    0.1700
     24 C24       -10.9565   -3.8443   55.5537 C.ar    1  ZINC000564088286   -0.1300
     25 C25       -10.9462   -3.3058   54.2807 C.ar    1  ZINC000564088286   -0.0200
     26 H26       -10.9184    2.0344   52.6902 H       1  ZINC000564088286    0.0600
     27 H27       -11.4324    1.3204   54.2376 H       1  ZINC000564088286    0.0600
     28 H28        -9.7088    1.6478   53.9375 H       1  ZINC000564088286    0.0700
     29 H29        -9.7002   -0.0521   52.1323 H       1  ZINC000564088286    0.0800
     30 H30       -10.2142   -0.7661   53.6796 H       1  ZINC000564088286    0.0700
     31 H31       -12.3791    0.1781   51.9613 H       1  ZINC000564088286    0.4200
     32 H32       -14.1924   -2.4211   54.0423 H       1  ZINC000564088286    0.1400
     33 H33       -14.2122   -3.3862   56.3075 H       1  ZINC000564088286    0.1300
     34 H34       -13.0291   -4.1208   58.2023 H       1  ZINC000564088286    0.1100
     35 H35       -12.1591   -5.5522   57.6003 H       1  ZINC000564088286    0.1100
     36 H36       -11.3986   -0.9061   57.9907 H       1  ZINC000564088286    0.0800
     37 H37       -12.6064   -2.2154   57.9097 H       1  ZINC000564088286    0.1100
     38 H38       -13.0154   -0.3807   59.6828 H       1  ZINC000564088286    0.0900
     39 H39       -13.0695   -2.0662   60.2569 H       1  ZINC000564088286    0.0900
     40 H40        -8.1633   -1.3133   61.7789 H       1  ZINC000564088286    0.1500
     41 H41        -9.0325   -3.1598   59.9116 H       1  ZINC000564088286    0.1000
     42 H42        -8.9476   -1.7122   58.8724 H       1  ZINC000564088286    0.0900
     43 H43       -10.0475   -4.2442   55.9784 H       1  ZINC000564088286    0.1300
     44 H44       -10.0286   -3.2825   53.7116 H       1  ZINC000564088286    0.1400
@<TRIPOS>BOND
     1     1     2    1
     2     1    26    1
     3     1    27    1
     4     1    28    1
     5     2     3    1
     6     2    29    1
     7     2    30    1
     8     3     4   am
     9     3    31    1
    10     4     5    2
    11     4     6    2
    12     4     7    1
    13     7    25   ar
    14     7     8   ar
    15     8     9   ar
    16     8    32    1
    17     9    10   ar
    18     9    33    1
    19    10    11    1
    20    10    24   ar
    21    11    12    1
    22    11    34    1
    23    11    35    1
    24    12    13    2
    25    12    14   am
    26    14    23    1
    27    14    15    1
    28    15    16    1
    29    15    36    1
    30    15    37    1
    31    16    17    1
    32    16    38    1
    33    16    39    1
    34    17    22    1
    35    17    18    2
    36    18    19    1
    37    18    23    1
    38    19    20    2
    39    19    40    1
    40    20    21    1
    41    20    22    1
    42    23    41    1
    43    23    42    1
    44    24    25   ar
    45    24    43    1
    46    25    44    1
@<TRIPOS>SUBSTRUCTURE
     1 ZINC000564088286        1 TEMP              0 ****  ****    0 ROOT


##########                                Name:    ZINC000618094467
##########                DOCK_Rotatable_Bonds:                   5
##########                         Heavy_Atoms:                  27
##########                    Molecular_Weight:             370.492
##########                DOCK_Rotatable_Bonds:                   5
##########                       Formal_Charge:                0.03
##########                     HBond_Acceptors:                   5
##########                        HBond_Donors:                   0
##########                         Heavy_Atoms:                  27
##########                          Grid_Score:          -31.299959
##########                     Grid_vdw_energy:          -31.037405
##########                      Grid_es_energy:           -0.262554
##########           Internal_energy_repulsive:          105.537575

@<TRIPOS>MOLECULE
ZINC000618094467
 57 59 1 0 0
SMALL
USER_CHARGES


@<TRIPOS>ATOM
      1 C1        -16.9847   -2.3752   57.8500 C.3     1  ZINC000618094467   -0.1500
      2 C2        -15.6183   -2.6528   57.2201 C.3     1  ZINC000618094467   -0.1000
      3 C3        -14.5139   -2.2558   58.2017 C.3     1  ZINC000618094467   -0.1100
      4 H4        -14.5988   -1.1943   58.4342 H       1  ZINC000618094467    0.1000
      5 C5        -14.6568   -3.0725   59.4876 C.3     1  ZINC000618094467   -0.1500
      6 C6        -13.1682   -2.5280   57.5807 C.2     1  ZINC000618094467    0.5200
      7 O7        -13.0658   -3.3426   56.6880 O.2     1  ZINC000618094467   -0.5000
      8 N8        -12.0782   -1.8663   58.0172 N.am    1  ZINC000618094467   -0.6100
      9 C9        -12.1685   -0.8751   59.0947 C.3     1  ZINC000618094467    0.1400
     10 C10       -11.0361   -1.0800   60.0694 C.ar    1  ZINC000618094467   -0.1000
     11 C11       -11.0908   -0.3995   61.2778 C.ar    1  ZINC000618094467   -0.1100
     12 C12       -10.0793   -0.5383   62.2062 C.ar    1  ZINC000618094467   -0.1200
     13 C13        -9.0031   -1.3605   61.9295 C.ar    1  ZINC000618094467   -0.1100
     14 C14        -8.9498   -2.0405   60.7304 C.ar    1  ZINC000618094467   -0.1200
     15 C15        -9.9697   -1.9073   59.7963 C.ar    1  ZINC000618094467   -0.0600
     16 C16        -9.8570   -2.7013   58.5216 C.3     1  ZINC000618094467   -0.0800
     17 C17       -10.7484   -2.1137   57.4359 C.3     1  ZINC000618094467    0.1200
     18 H18       -10.3259   -1.1739   57.0805 H       1  ZINC000618094467    0.1000
     19 C19       -10.8646   -3.0859   56.2902 C.2     1  ZINC000618094467    0.5500
     20 O20       -10.9259   -4.2771   56.5096 O.2     1  ZINC000618094467   -0.5200
     21 N21       -10.9003   -2.6315   55.0219 N.am    1  ZINC000618094467   -0.6100
     22 C22       -11.0194   -3.5708   53.8994 C.3     1  ZINC000618094467    0.1200
     23 C23       -12.2687   -3.2112   53.0850 C.3     1  ZINC000618094467   -0.1600
     24 H24       -12.2691   -3.7685   52.1482 H       1  ZINC000618094467    0.1100
     25 C25       -13.5242   -3.5547   53.8891 C.3     1  ZINC000618094467   -0.1400
     26 C26       -12.2392   -1.7267   52.7946 C.2     1  ZINC000618094467    0.3700
     27 O27       -12.3526   -1.3151   51.6650 O.2     1  ZINC000618094467   -0.4400
     28 C28       -12.0647   -0.7703   53.9538 C.3     1  ZINC000618094467   -0.1600
     29 H29       -12.9422   -0.8117   54.5991 H       1  ZINC000618094467    0.1100
     30 C30       -11.8816    0.6533   53.4241 C.3     1  ZINC000618094467   -0.1400
     31 C31       -10.8266   -1.1907   54.7467 C.3     1  ZINC000618094467    0.1400
     32 H32       -17.0689   -1.3133   58.0817 H       1  ZINC000618094467    0.0500
     33 H33       -17.7714   -2.6580   57.1507 H       1  ZINC000618094467    0.0600
     34 H34       -17.0870   -2.9563   58.7666 H       1  ZINC000618094467    0.0600
     35 H35       -15.5341   -3.7146   56.9884 H       1  ZINC000618094467    0.0700
     36 H36       -15.5160   -2.0717   56.3036 H       1  ZINC000618094467    0.0700
     37 H37       -14.7102   -4.1328   59.2406 H       1  ZINC000618094467    0.0700
     38 H38       -13.7950   -2.8921   60.1302 H       1  ZINC000618094467    0.0700
     39 H39       -15.5668   -2.7743   60.0082 H       1  ZINC000618094467    0.0700
     40 H40       -12.1058    0.1274   58.6715 H       1  ZINC000618094467    0.0900
     41 H41       -13.1197   -0.9899   59.6144 H       1  ZINC000618094467    0.1100
     42 H42       -11.9311    0.2440   61.4930 H       1  ZINC000618094467    0.1300
     43 H43       -10.1280   -0.0067   63.1450 H       1  ZINC000618094467    0.1300
     44 H44        -8.2061   -1.4700   62.6500 H       1  ZINC000618094467    0.1200
     45 H45        -8.1077   -2.6817   60.5157 H       1  ZINC000618094467    0.1200
     46 H46        -8.8212   -2.6896   58.1823 H       1  ZINC000618094467    0.0900
     47 H47       -10.1592   -3.7311   58.7128 H       1  ZINC000618094467    0.1000
     48 H48       -10.1360   -3.4965   53.2653 H       1  ZINC000618094467    0.0700
     49 H49       -11.1127   -4.5873   54.2819 H       1  ZINC000618094467    0.0900
     50 H50       -13.5690   -2.9268   54.7790 H       1  ZINC000618094467    0.0600
     51 H51       -14.4079   -3.3789   53.2756 H       1  ZINC000618094467    0.0600
     52 H52       -13.4904   -4.6031   54.1855 H       1  ZINC000618094467    0.0700
     53 H53       -12.7599    0.9418   52.8466 H       1  ZINC000618094467    0.0700
     54 H54       -11.7562    1.3394   54.2618 H       1  ZINC000618094467    0.0700
     55 H55       -10.9985    0.6930   52.7866 H       1  ZINC000618094467    0.0600
     56 H56       -10.7902   -0.6398   55.6865 H       1  ZINC000618094467    0.1100
     57 H57        -9.9303   -0.9813   54.1630 H       1  ZINC000618094467    0.0700
@<TRIPOS>BOND
     1     1     2    1
     2     1    32    1
     3     1    33    1
     4     1    34    1
     5     2     3    1
     6     2    35    1
     7     2    36    1
     8     3     4    1
     9     3     5    1
    10     3     6    1
    11     5    37    1
    12     5    38    1
    13     5    39    1
    14     6     7    2
    15     6     8   am
    16     8    17    1
    17     8     9    1
    18     9    10    1
    19     9    40    1
    20     9    41    1
    21    10    15   ar
    22    10    11   ar
    23    11    12   ar
    24    11    42    1
    25    12    13   ar
    26    12    43    1
    27    13    14   ar
    28    13    44    1
    29    14    15   ar
    30    14    45    1
    31    15    16    1
    32    16    17    1
    33    16    46    1
    34    16    47    1
    35    17    18    1
    36    17    19    1
    37    19    20    2
    38    19    21   am
    39    21    31    1
    40    21    22    1
    41    22    23    1
    42    22    48    1
    43    22    49    1
    44    23    24    1
    45    23    25    1
    46    23    26    1
    47    25    50    1
    48    25    51    1
    49    25    52    1
    50    26    27    2
    51    26    28    1
    52    28    29    1
    53    28    30    1
    54    28    31    1
    55    30    53    1
    56    30    54    1
    57    30    55    1
    58    31    56    1
    59    31    57    1
@<TRIPOS>SUBSTRUCTURE
     1 ZINC000618094467        1 TEMP              0 ****  ****    0 ROOT


##########                                Name:    ZINC000742270208
##########                DOCK_Rotatable_Bonds:                   5
##########                         Heavy_Atoms:                  25
##########                    Molecular_Weight:             376.328
##########                DOCK_Rotatable_Bonds:                   5
##########                       Formal_Charge:                0.02
##########                     HBond_Acceptors:                   9
##########                        HBond_Donors:                   0
##########                         Heavy_Atoms:                  25
##########                          Grid_Score:          -31.267565
##########                     Grid_vdw_energy:          -30.475834
##########                      Grid_es_energy:           -0.791731
##########           Internal_energy_repulsive:           10.027908

@<TRIPOS>MOLECULE
ZINC000742270208
 37 38 1 0 0
SMALL
USER_CHARGES


@<TRIPOS>ATOM
      1 C1        -14.1796   -4.2070   56.5749 C.3     1  ZINC000742270208   -0.1400
      2 C2        -13.7629   -4.0161   55.1151 C.3     1  ZINC000742270208   -0.1400
      3 C3        -14.3678   -2.7175   54.5778 C.3     1  ZINC000742270208   -0.1400
      4 C4        -12.2602   -3.9444   55.0270 C.2     1  ZINC000742270208    0.4000
      5 O5        -11.7009   -4.2071   53.9837 O.2     1  ZINC000742270208   -0.4300
      6 C6        -11.4716   -3.5557   56.2071 C.ar    1  ZINC000742270208   -0.1000
      7 C7        -11.0047   -2.2441   56.3395 C.ar    1  ZINC000742270208   -0.0900
      8 C8        -10.2663   -1.8877   57.4482 C.ar    1  ZINC000742270208   -0.0200
      9 C9         -9.9867   -2.8241   58.4282 C.ar    1  ZINC000742270208   -0.6800
     10 S10        -9.0425   -2.3586   59.8411 S.o2    1  ZINC000742270208    2.6600
     11 O11        -8.2145   -3.4701   60.1544 O.2     1  ZINC000742270208   -0.9300
     12 O12        -8.5316   -1.0601   59.5724 O.2     1  ZINC000742270208   -0.9000
     13 O13       -10.0145   -2.2062   61.0024 O.3     1  ZINC000742270208   -0.6400
     14 C14        -9.9630   -0.9911   61.6112 C.ar    1  ZINC000742270208    0.0500
     15 C15       -10.8861   -0.0085   61.2808 C.ar    1  ZINC000742270208    0.0900
     16 F16       -11.8369   -0.2585   60.3541 F       1  ZINC000742270208   -0.0900
     17 C17       -10.8322    1.2284   61.9025 C.ar    1  ZINC000742270208    0.1100
     18 F18       -11.7305    2.1850   61.5813 F       1  ZINC000742270208   -0.1000
     19 C19        -9.8588    1.4847   62.8528 C.ar    1  ZINC000742270208   -0.1100
     20 C20        -8.9369    0.5061   63.1833 C.ar    1  ZINC000742270208    0.1200
     21 F21        -7.9878    0.7586   64.1111 F       1  ZINC000742270208   -0.1000
     22 C22        -8.9907   -0.7338   62.5678 C.ar    1  ZINC000742270208    0.1200
     23 F23        -8.0912   -1.6885   62.8911 F       1  ZINC000742270208   -0.0900
     24 C24       -10.4453   -4.1240   58.3045 C.ar    1  ZINC000742270208   -0.0300
     25 C25       -11.1902   -4.4945   57.2048 C.ar    1  ZINC000742270208   -0.0800
     26 H26       -15.2665   -4.2587   56.6388 H       1  ZINC000742270208    0.0700
     27 H27       -13.7486   -5.1320   56.9577 H       1  ZINC000742270208    0.0600
     28 H28       -13.8204   -3.3661   57.1683 H       1  ZINC000742270208    0.0600
     29 H29       -14.1221   -4.8570   54.5219 H       1  ZINC000742270208    0.1000
     30 H30       -14.0087   -1.8766   55.1711 H       1  ZINC000742270208    0.0700
     31 H31       -14.0709   -2.5814   53.5379 H       1  ZINC000742270208    0.0600
     32 H32       -15.4547   -2.7693   54.6416 H       1  ZINC000742270208    0.0700
     33 H33       -11.2214   -1.5125   55.5752 H       1  ZINC000742270208    0.1500
     34 H34        -9.9049   -0.8752   57.5519 H       1  ZINC000742270208    0.1500
     35 H35        -9.8182    2.4493   63.3369 H       1  ZINC000742270208    0.1900
     36 H36       -10.2231   -4.8491   59.0735 H       1  ZINC000742270208    0.1500
     37 H37       -11.5474   -5.5093   57.1096 H       1  ZINC000742270208    0.1500
@<TRIPOS>BOND
     1     1     2    1
     2     1    26    1
     3     1    27    1
     4     1    28    1
     5     2     3    1
     6     2     4    1
     7     2    29    1
     8     3    30    1
     9     3    31    1
    10     3    32    1
    11     4     5    2
    12     4     6    1
    13     6    25   ar
    14     6     7   ar
    15     7     8   ar
    16     7    33    1
    17     8     9   ar
    18     8    34    1
    19     9    10    1
    20     9    24   ar
    21    10    11    2
    22    10    12    2
    23    10    13    1
    24    13    14    1
    25    14    22   ar
    26    14    15   ar
    27    15    16    1
    28    15    17   ar
    29    17    18    1
    30    17    19   ar
    31    19    20   ar
    32    19    35    1
    33    20    21    1
    34    20    22   ar
    35    22    23    1
    36    24    25   ar
    37    24    36    1
    38    25    37    1
@<TRIPOS>SUBSTRUCTURE
     1 ZINC000742270208        1 TEMP              0 ****  ****    0 ROOT


##########                                Name:    ZINC001045463759
##########                DOCK_Rotatable_Bonds:                   6
##########                         Heavy_Atoms:                  24
##########                    Molecular_Weight:             336.385
##########                DOCK_Rotatable_Bonds:                   6
##########                       Formal_Charge:          1.3411e-07
##########                     HBond_Acceptors:                   7
##########                        HBond_Donors:                   2
##########                         Heavy_Atoms:                  24
##########                          Grid_Score:          -31.258036
##########                     Grid_vdw_energy:          -31.351374
##########                      Grid_es_energy:            0.093338
##########           Internal_energy_repulsive:           10.458897

@<TRIPOS>MOLECULE
ZINC001045463759
 46 49 1 0 0
SMALL
USER_CHARGES


@<TRIPOS>ATOM
      1 O1        -10.9524   -3.3328   52.6468 O.2     1  ZINC001045463759   -0.5100
      2 C2        -11.0240   -2.3402   53.3401 C.2     1  ZINC001045463759    0.5400
      3 N3        -11.6483   -2.3953   54.5332 N.am    1  ZINC001045463759   -0.7200
      4 C4        -12.2458   -3.6524   54.9901 C.3     1  ZINC001045463759    0.1400
      5 H5        -11.6123   -4.4866   54.6883 H       1  ZINC001045463759    0.1000
      6 C6        -13.6333   -3.8141   54.3661 C.3     1  ZINC001045463759   -0.1300
      7 C7        -14.2573   -5.1271   54.8431 C.3     1  ZINC001045463759   -0.1200
      8 C8        -14.3829   -5.1077   56.3679 C.3     1  ZINC001045463759   -0.1200
      9 C9        -12.9953   -4.9460   56.9919 C.3     1  ZINC001045463759   -0.1300
     10 C10       -12.3713   -3.6331   56.5148 C.3     1  ZINC001045463759    0.1500
     11 H11       -13.0049   -2.7990   56.8166 H       1  ZINC001045463759    0.0900
     12 N12       -11.0427   -3.4783   57.1123 N.pl3   1  ZINC001045463759   -0.7100
     13 C13       -10.9178   -3.0245   58.4153 C.ar    1  ZINC001045463759    0.4400
     14 C14        -9.7042   -3.1451   59.0951 C.ar    1  ZINC001045463759   -0.3000
     15 C15        -9.6304   -2.6775   60.3926 C.ar    1  ZINC001045463759    0.1800
     16 N16       -10.7050   -2.1337   60.9461 N.ar    1  ZINC001045463759   -0.5600
     17 C17       -11.8364   -2.0343   60.2777 C.ar    1  ZINC001045463759    0.4000
     18 C18       -13.0315   -1.4083   60.9493 C.3     1  ZINC001045463759   -0.1100
     19 C19       -14.4183   -1.8306   60.4601 C.3     1  ZINC001045463759   -0.1500
     20 C20       -13.9071   -2.3125   61.8192 C.3     1  ZINC001045463759   -0.1500
     21 N21       -11.9503   -2.4620   59.0367 N.ar    1  ZINC001045463759   -0.5700
     22 C22       -10.4094   -1.0470   52.8702 C.3     1  ZINC001045463759   -0.2000
     23 H23        -9.8622   -1.1012   51.9290 H       1  ZINC001045463759    0.1500
     24 C24       -11.1681    0.2468   53.1727 C.3     1  ZINC001045463759   -0.1500
     25 C25        -9.8846   -0.0852   53.9380 C.3     1  ZINC001045463759    0.2300
     26 F26       -10.0125   -0.4733   55.2761 F       1  ZINC001045463759   -0.1400
     27 F27        -8.7395    0.6578   53.6318 F       1  ZINC001045463759   -0.1500
     28 H28       -11.7021   -1.6025   55.0895 H       1  ZINC001045463759    0.4000
     29 H29       -14.2668   -2.9801   54.6678 H       1  ZINC001045463759    0.0700
     30 H30       -13.5439   -3.8280   53.2798 H       1  ZINC001045463759    0.0800
     31 H31       -15.2459   -5.2423   54.3986 H       1  ZINC001045463759    0.0700
     32 H32       -13.6238   -5.9612   54.5414 H       1  ZINC001045463759    0.0700
     33 H33       -15.0164   -4.2736   56.6697 H       1  ZINC001045463759    0.0700
     34 H34       -14.8274   -6.0431   56.7078 H       1  ZINC001045463759    0.0700
     35 H35       -13.0847   -4.9322   58.0782 H       1  ZINC001045463759    0.0700
     36 H36       -12.3618   -5.7801   56.6901 H       1  ZINC001045463759    0.0700
     37 H37       -10.2505   -3.6935   56.5957 H       1  ZINC001045463759    0.4100
     38 H38        -8.8449   -3.5933   58.6185 H       1  ZINC001045463759    0.1400
     39 H39        -8.7083   -2.7543   60.9496 H       1  ZINC001045463759    0.1700
     40 H40       -12.9034   -0.3740   61.2682 H       1  ZINC001045463759    0.1300
     41 H41       -15.2029   -1.0739   60.4570 H       1  ZINC001045463759    0.1000
     42 H42       -14.4662   -2.5611   59.6525 H       1  ZINC001045463759    0.1100
     43 H43       -13.6186   -3.3601   61.9058 H       1  ZINC001045463759    0.1000
     44 H44       -14.3552   -1.8730   62.7103 H       1  ZINC001045463759    0.1000
     45 H45       -11.1197    1.0438   52.4308 H       1  ZINC001045463759    0.1400
     46 H46       -12.1118    0.1625   53.7117 H       1  ZINC001045463759    0.1300
@<TRIPOS>BOND
     1     1     2    2
     2     2     3   am
     3     2    22    1
     4     3     4    1
     5     3    28    1
     6     4     5    1
     7     4    10    1
     8     4     6    1
     9     6     7    1
    10     6    29    1
    11     6    30    1
    12     7     8    1
    13     7    31    1
    14     7    32    1
    15     8     9    1
    16     8    33    1
    17     8    34    1
    18     9    10    1
    19     9    35    1
    20     9    36    1
    21    10    11    1
    22    10    12    1
    23    12    13    1
    24    12    37    1
    25    13    21   ar
    26    13    14   ar
    27    14    15   ar
    28    14    38    1
    29    15    16   ar
    30    15    39    1
    31    16    17   ar
    32    17    18    1
    33    17    21   ar
    34    18    20    1
    35    18    19    1
    36    18    40    1
    37    19    20    1
    38    19    41    1
    39    19    42    1
    40    20    43    1
    41    20    44    1
    42    22    23    1
    43    22    25    1
    44    22    24    1
    45    24    25    1
    46    24    45    1
    47    24    46    1
    48    25    26    1
    49    25    27    1
@<TRIPOS>SUBSTRUCTURE
     1 ZINC001045463759        1 TEMP              0 ****  ****    0 ROOT


##########                                Name:    ZINC000186105981
##########                DOCK_Rotatable_Bonds:                   6
##########                         Heavy_Atoms:                  26
##########                    Molecular_Weight:             396.873
##########                DOCK_Rotatable_Bonds:                   6
##########                       Formal_Charge:          -0.0400003
##########                     HBond_Acceptors:                   9
##########                        HBond_Donors:                   1
##########                         Heavy_Atoms:                  26
##########                          Grid_Score:          -31.245893
##########                     Grid_vdw_energy:          -31.082943
##########                      Grid_es_energy:           -0.162950
##########           Internal_energy_repulsive:           14.479981

@<TRIPOS>MOLECULE
ZINC000186105981
 44 46 1 0 0
SMALL
USER_CHARGES


@<TRIPOS>ATOM
      1 C1        -13.8021   -5.0588   54.8106 C.3     1  ZINC000186105981   -0.1400
      2 C2        -13.6197   -4.1732   56.0448 C.3     1  ZINC000186105981   -0.1100
      3 C3        -13.8451   -5.0062   57.3081 C.3     1  ZINC000186105981   -0.1600
      4 C4        -12.2004   -3.6019   56.0572 C.3     1  ZINC000186105981    0.1600
      5 H5        -11.4815   -4.4167   56.1417 H       1  ZINC000186105981    0.1200
      6 C6        -12.0442   -2.6703   57.2315 C.2     1  ZINC000186105981    0.4900
      7 O7        -12.9141   -1.8645   57.4863 O.2     1  ZINC000186105981   -0.4300
      8 N8        -10.9377   -2.7325   57.9985 N.am    1  ZINC000186105981   -0.6300
      9 C9        -10.7936   -1.8735   59.0813 C.2     1  ZINC000186105981    0.2400
     10 N10       -10.0297   -0.8194   59.1279 N.2     1  ZINC000186105981   -0.2600
     11 N11       -10.0200   -0.1488   60.1959 N.2     1  ZINC000186105981   -0.2000
     12 C12       -10.7754   -0.5594   61.1757 C.2     1  ZINC000186105981    0.0300
     13 C13       -10.9070    0.0814   62.5011 C.ar    1  ZINC000186105981   -0.0500
     14 C14       -12.1089    0.6915   62.8697 C.ar    1  ZINC000186105981    0.1300
     15 F15       -13.1554    0.6978   62.0152 F       1  ZINC000186105981   -0.1200
     16 C16       -12.2243    1.2883   64.1111 C.ar    1  ZINC000186105981   -0.1400
     17 C17       -11.1540    1.2821   64.9869 C.ar    1  ZINC000186105981   -0.0600
     18 C18        -9.9610    0.6800   64.6279 C.ar    1  ZINC000186105981   -0.1200
     19 C19        -9.8327    0.0749   63.3936 C.ar    1  ZINC000186105981    0.0200
     20 Cl20       -8.3348   -0.6801   62.9463 Cl      1  ZINC000186105981   -0.0100
     21 S21       -11.6186   -2.0123   60.6351 S.3     1  ZINC000186105981    0.1200
     22 N22       -11.9597   -2.8650   54.8140 N.am    1  ZINC000186105981   -0.6100
     23 C23       -12.3674   -1.4741   54.5837 C.3     1  ZINC000186105981    0.1000
     24 C24       -11.5456   -1.0003   53.3645 C.3     1  ZINC000186105981   -0.1300
     25 C25       -11.2543   -2.3361   52.6423 C.3     1  ZINC000186105981   -0.1600
     26 C26       -11.3320   -3.3741   53.7399 C.2     1  ZINC000186105981    0.5200
     27 O27       -10.8978   -4.5037   53.6599 O.2     1  ZINC000186105981   -0.5000
     28 H28       -14.8132   -5.4658   54.8018 H       1  ZINC000186105981    0.0600
     29 H29       -13.6415   -4.4654   53.9106 H       1  ZINC000186105981    0.0600
     30 H30       -13.0816   -5.8762   54.8402 H       1  ZINC000186105981    0.0600
     31 H31       -14.3402   -3.3558   56.0151 H       1  ZINC000186105981    0.0900
     32 H32       -13.0674   -5.7660   57.3861 H       1  ZINC000186105981    0.0600
     33 H33       -13.8078   -4.3570   58.1829 H       1  ZINC000186105981    0.0600
     34 H34       -14.8209   -5.4892   57.2556 H       1  ZINC000186105981    0.0700
     35 H35       -10.2419   -3.3770   57.7946 H       1  ZINC000186105981    0.4200
     36 H36       -13.1522    1.7607   64.3978 H       1  ZINC000186105981    0.1500
     37 H37       -11.2497    1.7497   65.9557 H       1  ZINC000186105981    0.1500
     38 H38        -9.1294    0.6794   65.3170 H       1  ZINC000186105981    0.1500
     39 H39       -13.4335   -1.4253   54.3620 H       1  ZINC000186105981    0.0700
     40 H40       -12.1345   -0.8634   55.4560 H       1  ZINC000186105981    0.0800
     41 H41       -12.1337   -0.3352   52.7322 H       1  ZINC000186105981    0.0900
     42 H42       -10.6206   -0.5182   53.6811 H       1  ZINC000186105981    0.0800
     43 H43       -12.0061   -2.5277   51.8767 H       1  ZINC000186105981    0.1100
     44 H44       -10.2564   -2.3229   52.2036 H       1  ZINC000186105981    0.1000
@<TRIPOS>BOND
     1     1     2    1
     2     1    28    1
     3     1    29    1
     4     1    30    1
     5     2     3    1
     6     2     4    1
     7     2    31    1
     8     3    32    1
     9     3    33    1
    10     3    34    1
    11     4     5    1
    12     4     6    1
    13     4    22    1
    14     6     7    2
    15     6     8   am
    16     8     9    1
    17     8    35    1
    18     9    21    1
    19     9    10    2
    20    10    11    1
    21    11    12    2
    22    12    13    1
    23    12    21    1
    24    13    19   ar
    25    13    14   ar
    26    14    15    1
    27    14    16   ar
    28    16    17   ar
    29    16    36    1
    30    17    18   ar
    31    17    37    1
    32    18    19   ar
    33    18    38    1
    34    19    20    1
    35    22    26   am
    36    22    23    1
    37    23    24    1
    38    23    39    1
    39    23    40    1
    40    24    25    1
    41    24    41    1
    42    24    42    1
    43    25    26    1
    44    25    43    1
    45    25    44    1
    46    26    27    2
@<TRIPOS>SUBSTRUCTURE
     1 ZINC000186105981        1 TEMP              0 ****  ****    0 ROOT


##########                                Name:    ZINC001018437438
##########                DOCK_Rotatable_Bonds:                   8
##########                         Heavy_Atoms:                  24
##########                    Molecular_Weight:              333.39
##########                DOCK_Rotatable_Bonds:                   8
##########                       Formal_Charge:        -4.17233e-07
##########                     HBond_Acceptors:                   8
##########                        HBond_Donors:                   4
##########                         Heavy_Atoms:                  24
##########                          Grid_Score:          -31.219046
##########                     Grid_vdw_energy:          -30.471525
##########                      Grid_es_energy:           -0.747521
##########           Internal_energy_repulsive:           88.779266

@<TRIPOS>MOLECULE
ZINC001018437438
 47 49 1 0 0
SMALL
USER_CHARGES


@<TRIPOS>ATOM
      1 C1        -11.5768   -3.7321   57.2522 C.3     1  ZINC001018437438   -0.1400
      2 C2        -10.9449   -3.4421   58.6150 C.3     1  ZINC001018437438    0.1400
      3 H3        -10.7260   -4.3810   59.1235 H       1  ZINC001018437438    0.0700
      4 C4         -9.6489   -2.6484   58.4218 C.3     1  ZINC001018437438   -0.1300
      5 C5         -9.0956   -2.2419   59.7895 C.3     1  ZINC001018437438   -0.1300
      6 C6        -10.1086   -1.3458   60.5057 C.3     1  ZINC001018437438    0.1300
      7 H7        -10.3094   -0.4646   59.8964 H       1  ZINC001018437438    0.1000
      8 N8         -9.5645   -0.9310   61.8011 N.am    1  ZINC001018437438   -0.7200
      9 C9        -10.2141   -0.0111   62.5414 C.2     1  ZINC001018437438    0.6000
     10 O10       -11.2529    0.4738   62.1347 O.2     1  ZINC001018437438   -0.5100
     11 C11        -9.6667    0.4069   63.8419 C.2     1  ZINC001018437438   -0.0400
     12 C12        -8.4399    0.0561   64.3783 C.2     1  ZINC001018437438   -0.1400
     13 C13        -8.3815    0.6967   65.6181 C.2     1  ZINC001018437438    0.0600
     14 C14        -7.2384    0.6306   66.5979 C.3     1  ZINC001018437438   -0.0800
     15 C15        -6.0407    1.5495   66.3491 C.3     1  ZINC001018437438   -0.1700
     16 C16        -7.0075    1.8469   67.4971 C.3     1  ZINC001018437438   -0.1600
     17 N17        -9.4952    1.3651   65.7776 N.2     1  ZINC001018437438   -0.2600
     18 N18       -10.2650    1.2235   64.7590 N.pl3   1  ZINC001018437438   -0.3800
     19 C19       -11.4097   -2.1246   60.7225 C.3     1  ZINC001018437438    0.1000
     20 N20       -11.8734   -2.6460   59.4290 N.am    1  ZINC001018437438   -0.6100
     21 C21       -13.1246   -2.3942   58.9958 C.2     1  ZINC001018437438    0.5200
     22 O22       -13.4937   -2.8261   57.9243 O.2     1  ZINC001018437438   -0.4800
     23 C23       -14.0648   -1.5758   59.8429 C.3     1  ZINC001018437438   -0.1700
     24 C24       -15.3874   -1.4367   59.1340 C.2     1  ZINC001018437438    0.5200
     25 N25       -16.3164   -2.4068   59.2444 N.am    1  ZINC001018437438   -0.8600
     26 O26       -15.6157   -0.4517   58.4642 O.2     1  ZINC001018437438   -0.5000
     27 H27       -11.8865   -2.7955   56.7885 H       1  ZINC001018437438    0.0700
     28 H28       -10.8484   -4.2306   56.6126 H       1  ZINC001018437438    0.0500
     29 H29       -12.4456   -4.3769   57.3843 H       1  ZINC001018437438    0.0800
     30 H30        -8.9172   -3.2675   57.9026 H       1  ZINC001018437438    0.0900
     31 H31        -9.8540   -1.7549   57.8321 H       1  ZINC001018437438    0.0700
     32 H32        -8.9139   -3.1349   60.3877 H       1  ZINC001018437438    0.0700
     33 H33        -8.1604   -1.6983   59.6560 H       1  ZINC001018437438    0.0800
     34 H34        -8.7368   -1.3184   62.1261 H       1  ZINC001018437438    0.4000
     35 H35        -7.6878   -0.5780   63.9329 H       1  ZINC001018437438    0.1700
     36 H36        -7.0387   -0.3536   67.0216 H       1  ZINC001018437438    0.1200
     37 H37        -5.0525    1.1699   66.6089 H       1  ZINC001018437438    0.1000
     38 H38        -6.0795    2.2019   65.4767 H       1  ZINC001018437438    0.1000
     39 H39        -7.6823    2.6947   67.3799 H       1  ZINC001018437438    0.1000
     40 H40        -6.6554    1.6627   68.5120 H       1  ZINC001018437438    0.1000
     41 H41       -11.1405    1.6289   64.6594 H       1  ZINC001018437438    0.4400
     42 H42       -11.2291   -2.9550   61.4052 H       1  ZINC001018437438    0.0700
     43 H43       -12.1667   -1.4621   61.1421 H       1  ZINC001018437438    0.0900
     44 H44       -14.2167   -2.0729   60.8009 H       1  ZINC001018437438    0.1200
     45 H45       -13.6364   -0.5877   60.0102 H       1  ZINC001018437438    0.1200
     46 H46       -17.1673   -2.3180   58.7873 H       1  ZINC001018437438    0.4000
     47 H47       -16.1341   -3.1940   59.7811 H       1  ZINC001018437438    0.4000
@<TRIPOS>BOND
     1     1     2    1
     2     1    27    1
     3     1    28    1
     4     1    29    1
     5     2     3    1
     6     2    20    1
     7     2     4    1
     8     4     5    1
     9     4    30    1
    10     4    31    1
    11     5     6    1
    12     5    32    1
    13     5    33    1
    14     6     7    1
    15     6     8    1
    16     6    19    1
    17     8     9   am
    18     8    34    1
    19     9    10    2
    20     9    11    1
    21    11    18    1
    22    11    12    2
    23    12    13    1
    24    12    35    1
    25    13    14    1
    26    13    17    2
    27    14    16    1
    28    14    15    1
    29    14    36    1
    30    15    16    1
    31    15    37    1
    32    15    38    1
    33    16    39    1
    34    16    40    1
    35    17    18    1
    36    18    41    1
    37    19    20    1
    38    19    42    1
    39    19    43    1
    40    20    21   am
    41    21    22    2
    42    21    23    1
    43    23    24    1
    44    23    44    1
    45    23    45    1
    46    24    25   am
    47    24    26    2
    48    25    46    1
    49    25    47    1
@<TRIPOS>SUBSTRUCTURE
     1 ZINC001018437438        1 TEMP              0 ****  ****    0 ROOT


##########                                Name:    ZINC000089894387
##########                DOCK_Rotatable_Bonds:                   8
##########                         Heavy_Atoms:                  22
##########                    Molecular_Weight:             326.823
##########                DOCK_Rotatable_Bonds:                   8
##########                       Formal_Charge:          -0.0300003
##########                     HBond_Acceptors:                   6
##########                        HBond_Donors:                   2
##########                         Heavy_Atoms:                  22
##########                          Grid_Score:          -31.193420
##########                     Grid_vdw_energy:          -27.949854
##########                      Grid_es_energy:           -3.243567
##########           Internal_energy_repulsive:           23.370834

@<TRIPOS>MOLECULE
ZINC000089894387
 45 46 1 0 0
SMALL
USER_CHARGES


@<TRIPOS>ATOM
      1 C1         -2.8152    4.5998   64.9034 C.3     1  ZINC000089894387   -0.1700
      2 C2         -3.2502    3.1388   65.0343 C.3     1  ZINC000089894387    0.1700
      3 H3         -3.0917    2.8029   66.0591 H       1  ZINC000089894387    0.0900
      4 N4         -4.6705    3.0199   64.6955 N.am    1  ZINC000089894387   -0.7400
      5 C5         -5.4336    2.0920   65.3062 C.2     1  ZINC000089894387    0.7100
      6 O6         -4.9429    1.3524   66.1372 O.2     1  ZINC000089894387   -0.5900
      7 N7         -6.7406    1.9836   64.9957 N.am    1  ZINC000089894387   -0.7500
      8 C8         -7.5705    0.9761   65.6608 C.3     1  ZINC000089894387    0.1400
      9 C9         -8.7491    0.6087   64.7570 C.3     1  ZINC000089894387    0.0500
     10 O10        -8.2575    0.0577   63.5336 O.3     1  ZINC000089894387   -0.3100
     11 C11        -9.1781   -0.2562   62.5845 C.ar    1  ZINC000089894387    0.1400
     12 C12       -10.2223    0.6160   62.3142 C.ar    1  ZINC000089894387   -0.2100
     13 C13       -11.1574    0.2952   61.3489 C.ar    1  ZINC000089894387   -0.0700
     14 C14       -11.0534   -0.8940   60.6521 C.ar    1  ZINC000089894387   -0.1500
     15 C15       -10.0129   -1.7667   60.9198 C.ar    1  ZINC000089894387    0.0000
     16 Cl16       -9.8851   -3.2594   60.0429 Cl      1  ZINC000089894387   -0.0600
     17 C17        -9.0716   -1.4469   61.8804 C.ar    1  ZINC000089894387   -0.1500
     18 C18        -2.4243    2.2733   64.0805 C.3     1  ZINC000089894387   -0.1000
     19 C19        -2.6381    2.7501   62.6407 C.3     1  ZINC000089894387   -0.1600
     20 C20        -1.7483    1.9305   61.7024 C.3     1  ZINC000089894387    0.0600
     21 O21        -0.3835    2.0652   62.1040 O.3     1  ZINC000089894387   -0.3800
     22 C22        -0.1144    1.5914   63.4251 C.3     1  ZINC000089894387    0.0600
     23 C23        -0.9386    2.3974   64.4325 C.3     1  ZINC000089894387   -0.1500
     24 H24        -2.9736    4.9357   63.8786 H       1  ZINC000089894387    0.0600
     25 H25        -3.4036    5.2163   65.5828 H       1  ZINC000089894387    0.0600
     26 H26        -1.7584    4.6882   65.1554 H       1  ZINC000089894387    0.0700
     27 H27        -5.0617    3.6092   64.0316 H       1  ZINC000089894387    0.3900
     28 H28        -7.1318    2.5729   64.3318 H       1  ZINC000089894387    0.4000
     29 H29        -6.9731    0.0862   65.8585 H       1  ZINC000089894387    0.0800
     30 H30        -7.9459    1.3782   66.6018 H       1  ZINC000089894387    0.0900
     31 H31        -9.3774   -0.1264   65.2600 H       1  ZINC000089894387    0.0900
     32 H32        -9.3355    1.5024   64.5432 H       1  ZINC000089894387    0.0700
     33 H33       -10.3046    1.5453   62.8583 H       1  ZINC000089894387    0.1300
     34 H34       -11.9705    0.9741   61.1388 H       1  ZINC000089894387    0.1400
     35 H35       -11.7853   -1.1429   59.8979 H       1  ZINC000089894387    0.1400
     36 H36        -8.2595   -2.1276   62.0890 H       1  ZINC000089894387    0.1400
     37 H37        -2.7348    1.2324   64.1712 H       1  ZINC000089894387    0.0800
     38 H38        -3.6833    2.6136   62.3631 H       1  ZINC000089894387    0.0700
     39 H39        -2.3745    3.8050   62.5633 H       1  ZINC000089894387    0.0800
     40 H40        -2.0393    0.8812   61.7500 H       1  ZINC000089894387    0.0500
     41 H41        -1.8644    2.2941   60.6814 H       1  ZINC000089894387    0.0900
     42 H42        -0.3842    0.5376   63.4952 H       1  ZINC000089894387    0.0500
     43 H43         0.9463    1.7106   63.6450 H       1  ZINC000089894387    0.1000
     44 H44        -0.6408    3.4451   64.3914 H       1  ZINC000089894387    0.0800
     45 H45        -0.7684    2.0085   65.4364 H       1  ZINC000089894387    0.0800
@<TRIPOS>BOND
     1     1     2    1
     2     1    24    1
     3     1    25    1
     4     1    26    1
     5     2     3    1
     6     2     4    1
     7     2    18    1
     8     4     5   am
     9     4    27    1
    10     5     6    2
    11     5     7   am
    12     7     8    1
    13     7    28    1
    14     8     9    1
    15     8    29    1
    16     8    30    1
    17     9    10    1
    18     9    31    1
    19     9    32    1
    20    10    11    1
    21    11    17   ar
    22    11    12   ar
    23    12    13   ar
    24    12    33    1
    25    13    14   ar
    26    13    34    1
    27    14    15   ar
    28    14    35    1
    29    15    16    1
    30    15    17   ar
    31    17    36    1
    32    18    23    1
    33    18    19    1
    34    18    37    1
    35    19    20    1
    36    19    38    1
    37    19    39    1
    38    20    21    1
    39    20    40    1
    40    20    41    1
    41    21    22    1
    42    22    23    1
    43    22    42    1
    44    22    43    1
    45    23    44    1
    46    23    45    1
@<TRIPOS>SUBSTRUCTURE
     1 ZINC000089894387        1 TEMP              0 ****  ****    0 ROOT


##########                                Name:    ZINC000409064708
##########                DOCK_Rotatable_Bonds:                   8
##########                         Heavy_Atoms:                  29
##########                    Molecular_Weight:             415.442
##########                DOCK_Rotatable_Bonds:                   8
##########                       Formal_Charge:                0.03
##########                     HBond_Acceptors:                   8
##########                        HBond_Donors:                   0
##########                         Heavy_Atoms:                  29
##########                          Grid_Score:          -31.186245
##########                     Grid_vdw_energy:          -30.845594
##########                      Grid_es_energy:           -0.340650
##########           Internal_energy_repulsive:           18.153748

@<TRIPOS>MOLECULE
ZINC000409064708
 47 49 1 0 0
SMALL
USER_CHARGES


@<TRIPOS>ATOM
      1 C1        -15.7827   -0.7636   52.8714 C.3     1  ZINC000409064708    0.0400
      2 O2        -14.6507   -1.5330   53.3562 O.3     1  ZINC000409064708   -0.3500
      3 C3        -13.6211   -1.7003   52.5116 C.2     1  ZINC000409064708    0.4600
      4 O4        -13.6149   -1.1309   51.4460 O.2     1  ZINC000409064708   -0.4900
      5 C5        -12.4725   -2.5986   52.8925 C.3     1  ZINC000409064708    0.1400
      6 H6        -12.7999   -3.6379   52.8663 H       1  ZINC000409064708    0.1500
      7 C7        -11.3213   -2.4013   51.9043 C.3     1  ZINC000409064708   -0.1600
      8 N8        -12.0183   -2.2637   54.2446 N.am    1  ZINC000409064708   -0.5600
      9 C9        -11.6840   -1.0048   54.5506 C.2     1  ZINC000409064708    0.5400
     10 O10       -11.7115   -0.0458   53.8030 O.2     1  ZINC000409064708   -0.4200
     11 S11       -11.1943   -1.0017   56.2539 S.3     1  ZINC000409064708   -0.0100
     12 C12       -11.4688   -2.7403   56.4831 C.2     1  ZINC000409064708   -0.2400
     13 C13       -11.2885   -3.4723   57.6115 C.2     1  ZINC000409064708    0.0900
     14 C14       -10.8097   -2.8236   58.8388 C.ar    1  ZINC000409064708   -0.1400
     15 C15        -9.5424   -3.1323   59.3483 C.ar    1  ZINC000409064708    0.0000
     16 C16        -9.0985   -2.5212   60.4994 C.ar    1  ZINC000409064708   -0.1600
     17 C17        -9.9061   -1.5995   61.1558 C.ar    1  ZINC000409064708    0.1600
     18 O18        -9.4634   -0.9997   62.2904 O.3     1  ZINC000409064708   -0.3000
     19 C19       -10.2057    0.1273   62.7606 C.3     1  ZINC000409064708    0.1000
     20 C20        -9.4918    0.7442   63.9357 C.ar    1  ZINC000409064708   -0.0700
     21 C21        -9.6870    2.0783   64.2398 C.ar    1  ZINC000409064708   -0.1000
     22 C22        -9.0326    2.6457   65.3176 C.ar    1  ZINC000409064708   -0.0900
     23 C23        -8.1829    1.8793   66.0922 C.ar    1  ZINC000409064708   -0.1400
     24 C24        -7.9871    0.5424   65.7888 C.ar    1  ZINC000409064708    0.1000
     25 F25        -7.1564   -0.2079   66.5454 F       1  ZINC000409064708   -0.1400
     26 C26        -8.6467   -0.0258   64.7125 C.ar    1  ZINC000409064708   -0.1300
     27 C27       -11.1650   -1.2893   60.6545 C.ar    1  ZINC000409064708   -0.2200
     28 C28       -11.6164   -1.8897   59.5008 C.ar    1  ZINC000409064708   -0.0400
     29 C29       -11.9408   -3.2025   55.1729 C.2     1  ZINC000409064708    0.5600
     30 O30       -12.2325   -4.3638   54.9550 O.2     1  ZINC000409064708   -0.4600
     31 H31       -15.4529    0.2417   52.6088 H       1  ZINC000409064708    0.0700
     32 H32       -16.2022   -1.2499   51.9908 H       1  ZINC000409064708    0.0700
     33 H33       -16.5425   -0.7046   53.6506 H       1  ZINC000409064708    0.1100
     34 H34       -11.6592   -2.6505   50.8984 H       1  ZINC000409064708    0.1000
     35 H35       -10.9939   -1.3620   51.9305 H       1  ZINC000409064708    0.0800
     36 H36       -10.4906   -3.0509   52.1798 H       1  ZINC000409064708    0.0800
     37 H37       -11.4971   -4.5320   57.6069 H       1  ZINC000409064708    0.1600
     38 H38        -8.9145   -3.8488   58.8396 H       1  ZINC000409064708    0.1300
     39 H39        -8.1214   -2.7584   60.8932 H       1  ZINC000409064708    0.1400
     40 H40       -10.2935    0.8634   61.9616 H       1  ZINC000409064708    0.0800
     41 H41       -11.2002   -0.1955   63.0683 H       1  ZINC000409064708    0.0800
     42 H42       -10.3506    2.6782   63.6348 H       1  ZINC000409064708    0.1300
     43 H43        -9.1855    3.6883   65.5542 H       1  ZINC000409064708    0.1400
     44 H44        -7.6713    2.3228   66.9337 H       1  ZINC000409064708    0.1400
     45 H45        -8.4950   -1.0684   64.4751 H       1  ZINC000409064708    0.1400
     46 H46       -11.7883   -0.5728   61.1686 H       1  ZINC000409064708    0.1300
     47 H47       -12.5946   -1.6480   59.1121 H       1  ZINC000409064708    0.1300
@<TRIPOS>BOND
     1     1     2    1
     2     1    31    1
     3     1    32    1
     4     1    33    1
     5     2     3    1
     6     3     4    2
     7     3     5    1
     8     5     6    1
     9     5     7    1
    10     5     8    1
    11     7    34    1
    12     7    35    1
    13     7    36    1
    14     8    29   am
    15     8     9   am
    16     9    10    2
    17     9    11    1
    18    11    12    1
    19    12    13    2
    20    12    29    1
    21    13    14    1
    22    13    37    1
    23    14    28   ar
    24    14    15   ar
    25    15    16   ar
    26    15    38    1
    27    16    17   ar
    28    16    39    1
    29    17    18    1
    30    17    27   ar
    31    18    19    1
    32    19    20    1
    33    19    40    1
    34    19    41    1
    35    20    26   ar
    36    20    21   ar
    37    21    22   ar
    38    21    42    1
    39    22    23   ar
    40    22    43    1
    41    23    24   ar
    42    23    44    1
    43    24    25    1
    44    24    26   ar
    45    26    45    1
    46    27    28   ar
    47    27    46    1
    48    28    47    1
    49    29    30    2
@<TRIPOS>SUBSTRUCTURE
     1 ZINC000409064708        1 TEMP              0 ****  ****    0 ROOT


##########                                Name:    ZINC001401207732
##########                DOCK_Rotatable_Bonds:                   8
##########                         Heavy_Atoms:                  23
##########                    Molecular_Weight:             337.446
##########                DOCK_Rotatable_Bonds:                   8
##########                       Formal_Charge:          -0.0199995
##########                     HBond_Acceptors:                   8
##########                        HBond_Donors:                   1
##########                         Heavy_Atoms:                  23
##########                          Grid_Score:          -31.174141
##########                     Grid_vdw_energy:          -30.500168
##########                      Grid_es_energy:           -0.673973
##########           Internal_energy_repulsive:           27.298594

@<TRIPOS>MOLECULE
ZINC001401207732
 46 47 1 0 0
SMALL
USER_CHARGES


@<TRIPOS>ATOM
      1 C1        -15.1576    1.5454   60.0634 C.3     1  ZINC001401207732   -0.0900
      2 C2        -14.4495    0.4086   60.7544 C.2     1  ZINC001401207732    0.1500
      3 C3        -14.2624   -0.8038   60.1753 C.2     1  ZINC001401207732   -0.3000
      4 C4        -14.7009   -1.1977   58.8321 C.2     1  ZINC001401207732    0.6100
      5 O5        -14.3555   -0.5464   57.8639 O.2     1  ZINC001401207732   -0.5200
      6 N6        -15.4863   -2.2809   58.6702 N.am    1  ZINC001401207732   -0.5900
      7 C7        -15.9020   -3.0650   59.8358 C.3     1  ZINC001401207732    0.0700
      8 C8        -15.9242   -2.6743   57.3287 C.3     1  ZINC001401207732    0.1400
      9 H9        -16.4973   -3.5994   57.3903 H       1  ZINC001401207732    0.1100
     10 C10       -16.8006   -1.5701   56.7340 C.3     1  ZINC001401207732   -0.1600
     11 C11       -14.7007   -2.8909   56.4358 C.3     1  ZINC001401207732    0.0500
     12 N12       -13.8758   -3.9728   56.9896 N.3     1  ZINC001401207732   -0.6800
     13 C13       -12.5886   -4.0654   56.2876 C.3     1  ZINC001401207732    0.1500
     14 C14       -11.4664   -4.0590   57.2933 C.2     1  ZINC001401207732    0.1800
     15 N15       -10.9696   -3.0093   57.9023 N.2     1  ZINC001401207732   -0.4800
     16 C16        -9.9955   -3.4814   58.7006 C.2     1  ZINC001401207732    0.1800
     17 C17        -9.1172   -2.6656   59.6140 C.3     1  ZINC001401207732   -0.0100
     18 C18        -9.1148   -1.2074   59.1508 C.3     1  ZINC001401207732   -0.1500
     19 C19        -9.6552   -2.7455   61.0441 C.3     1  ZINC001401207732   -0.1500
     20 N20        -9.9504   -4.7700   58.5393 N.2     1  ZINC001401207732   -0.3800
     21 O21       -10.7912   -5.1226   57.7393 O.3     1  ZINC001401207732    0.0900
     22 S22       -13.4047   -1.8231   61.3288 S.3     1  ZINC001401207732    0.1800
     23 C23       -13.3728   -0.5376   62.4552 C.2     1  ZINC001401207732    0.0100
     24 N24       -13.9613    0.5060   61.9654 N.2     1  ZINC001401207732   -0.4800
     25 H25       -16.2241    1.4965   60.2833 H       1  ZINC001401207732    0.0800
     26 H26       -14.7561    2.4939   60.4200 H       1  ZINC001401207732    0.0800
     27 H27       -15.0047    1.4679   58.9869 H       1  ZINC001401207732    0.1000
     28 H28       -15.1203   -3.7812   60.0895 H       1  ZINC001401207732    0.0600
     29 H29       -16.0717   -2.3978   60.6809 H       1  ZINC001401207732    0.0800
     30 H30       -16.8232   -3.5996   59.6042 H       1  ZINC001401207732    0.0900
     31 H31       -17.1264   -1.8628   55.7359 H       1  ZINC001401207732    0.0700
     32 H32       -17.6722   -1.4159   57.3701 H       1  ZINC001401207732    0.0700
     33 H33       -16.2275   -0.6450   56.6724 H       1  ZINC001401207732    0.0600
     34 H34       -14.1149   -1.9726   56.3933 H       1  ZINC001401207732    0.0800
     35 H35       -15.0271   -3.1604   55.4314 H       1  ZINC001401207732    0.0500
     36 H36       -14.3676   -4.8534   56.9607 H       1  ZINC001401207732    0.3600
     37 H37       -12.4792   -3.2141   55.6157 H       1  ZINC001401207732    0.1100
     38 H38       -12.5548   -4.9900   55.7112 H       1  ZINC001401207732    0.0800
     39 H39        -8.1004   -3.0575   59.5859 H       1  ZINC001401207732    0.1000
     40 H40        -8.4796   -0.6174   59.8115 H       1  ZINC001401207732    0.0700
     41 H41        -8.7315   -1.1505   58.1321 H       1  ZINC001401207732    0.0600
     42 H42       -10.1315   -0.8155   59.1790 H       1  ZINC001401207732    0.0600
     43 H43        -9.6570   -3.7844   61.3741 H       1  ZINC001401207732    0.0600
     44 H44        -9.0200   -2.1556   61.7047 H       1  ZINC001401207732    0.0700
     45 H45       -10.6719   -2.3537   61.0723 H       1  ZINC001401207732    0.0600
     46 H46       -12.9288   -0.5903   63.4383 H       1  ZINC001401207732    0.2000
@<TRIPOS>BOND
     1     1     2    1
     2     1    25    1
     3     1    26    1
     4     1    27    1
     5     2    24    1
     6     2     3    2
     7     3     4    1
     8     3    22    1
     9     4     5    2
    10     4     6   am
    11     6     7    1
    12     6     8    1
    13     7    28    1
    14     7    29    1
    15     7    30    1
    16     8     9    1
    17     8    10    1
    18     8    11    1
    19    10    31    1
    20    10    32    1
    21    10    33    1
    22    11    12    1
    23    11    34    1
    24    11    35    1
    25    12    13    1
    26    12    36    1
    27    13    14    1
    28    13    37    1
    29    13    38    1
    30    14    21    1
    31    14    15    2
    32    15    16    1
    33    16    17    1
    34    16    20    2
    35    17    18    1
    36    17    19    1
    37    17    39    1
    38    18    40    1
    39    18    41    1
    40    18    42    1
    41    19    43    1
    42    19    44    1
    43    19    45    1
    44    20    21    1
    45    22    23    1
    46    23    24    2
    47    23    46    1
@<TRIPOS>SUBSTRUCTURE
     1 ZINC001401207732        1 TEMP              0 ****  ****    0 ROOT


##########                                Name:    ZINC001013196242
##########                DOCK_Rotatable_Bonds:                   5
##########                         Heavy_Atoms:                  24
##########                    Molecular_Weight:              349.86
##########                DOCK_Rotatable_Bonds:                   5
##########                       Formal_Charge:        -3.05474e-07
##########                     HBond_Acceptors:                   6
##########                        HBond_Donors:                   1
##########                         Heavy_Atoms:                  24
##########                          Grid_Score:          -31.174040
##########                     Grid_vdw_energy:          -30.057003
##########                      Grid_es_energy:           -1.117036
##########           Internal_energy_repulsive:           10.687986

@<TRIPOS>MOLECULE
ZINC001013196242
 48 51 1 0 0
SMALL
USER_CHARGES


@<TRIPOS>ATOM
      1 C1         -9.9311   -1.4890   60.7152 C.3     1  ZINC001013196242   -0.1600
      2 C2        -10.6694   -2.6711   60.0839 C.3     1  ZINC001013196242    0.1400
      3 H3        -10.7181   -3.4983   60.7919 H       1  ZINC001013196242    0.0800
      4 C4         -9.9395   -3.1208   58.8006 C.3     1  ZINC001013196242   -0.1400
      5 C5        -11.1076   -3.4755   57.8428 C.3     1  ZINC001013196242    0.1300
      6 H6        -11.4778   -4.4826   58.0343 H       1  ZINC001013196242    0.1100
      7 N7        -10.7028   -3.3250   56.4429 N.am    1  ZINC001013196242   -0.7200
      8 C8        -11.5597   -3.6508   55.4550 C.2     1  ZINC001013196242    0.5400
      9 O9        -12.6664   -4.0669   55.7249 O.2     1  ZINC001013196242   -0.5200
     10 C10       -11.1426   -3.4978   54.0150 C.3     1  ZINC001013196242   -0.1400
     11 C11       -12.2149   -3.9572   53.0112 C.3     1  ZINC001013196242   -0.0800
     12 C12       -12.7501   -2.5218   53.0537 C.3     1  ZINC001013196242   -0.1600
     13 C13       -13.7229   -1.8411   52.0974 C.3     1  ZINC001013196242   -0.1700
     14 C14       -14.0947   -2.0233   53.5715 C.3     1  ZINC001013196242   -0.1400
     15 C15       -11.3427   -2.0750   53.4638 C.3     1  ZINC001013196242   -0.0800
     16 C16       -12.1641   -2.4119   58.2336 C.3     1  ZINC001013196242    0.0800
     17 N17       -12.0279   -2.2633   59.6973 N.am    1  ZINC001013196242   -0.6000
     18 C18       -12.9885   -1.8253   60.5349 C.2     1  ZINC001013196242    0.6100
     19 O19       -12.7634   -1.7408   61.7280 O.2     1  ZINC001013196242   -0.5400
     20 C20       -14.3053   -1.4504   60.0088 C.2     1  ZINC001013196242   -0.0400
     21 C21       -14.7357   -0.1713   59.7259 C.2     1  ZINC001013196242   -0.1400
     22 C22       -16.0460   -0.2749   59.2471 C.2     1  ZINC001013196242   -0.1200
     23 Cl23      -17.0573    1.0431   58.7432 Cl      1  ZINC001013196242   -0.0400
     24 C24       -16.3856   -1.5868   59.2460 C.2     1  ZINC001013196242    0.0400
     25 N25       -15.3340   -2.3119   59.7021 N.pl3   1  ZINC001013196242   -0.4000
     26 C26       -15.3014   -3.7690   59.8513 C.3     1  ZINC001013196242    0.0700
     27 H27       -10.4551   -1.1733   61.6174 H       1  ZINC001013196242    0.0700
     28 H28        -8.9152   -1.7899   60.9714 H       1  ZINC001013196242    0.0700
     29 H29        -9.8971   -0.6614   60.0065 H       1  ZINC001013196242    0.0600
     30 H30        -9.3399   -2.3072   58.3928 H       1  ZINC001013196242    0.0900
     31 H31        -9.3212   -3.9970   58.9956 H       1  ZINC001013196242    0.0900
     32 H32        -9.8180   -2.9910   56.2271 H       1  ZINC001013196242    0.4000
     33 H33       -10.1525   -3.9075   53.8155 H       1  ZINC001013196242    0.1000
     34 H34       -11.8105   -4.2445   52.0405 H       1  ZINC001013196242    0.1000
     35 H35       -12.9072   -4.6942   53.4179 H       1  ZINC001013196242    0.0700
     36 H36       -13.4767   -0.8340   51.7610 H       1  ZINC001013196242    0.1000
     37 H37       -14.2343   -2.4690   51.3678 H       1  ZINC001013196242    0.0900
     38 H38       -14.8504   -2.7712   53.8115 H       1  ZINC001013196242    0.0900
     39 H39       -14.0928   -1.1361   54.2048 H       1  ZINC001013196242    0.1000
     40 H40       -11.3359   -1.3030   54.2333 H       1  ZINC001013196242    0.0800
     41 H41       -10.6956   -1.8384   52.6191 H       1  ZINC001013196242    0.0900
     42 H42       -11.9534   -1.4666   57.7338 H       1  ZINC001013196242    0.0800
     43 H43       -13.1652   -2.7611   57.9806 H       1  ZINC001013196242    0.1000
     44 H44       -14.1683    0.7390   59.8509 H       1  ZINC001013196242    0.1600
     45 H45       -17.3366   -1.9895   58.9301 H       1  ZINC001013196242    0.1800
     46 H46       -14.8462   -4.2146   58.9668 H       1  ZINC001013196242    0.0800
     47 H47       -14.7158   -4.0310   60.7324 H       1  ZINC001013196242    0.1000
     48 H48       -16.3180   -4.1454   59.9654 H       1  ZINC001013196242    0.0900
@<TRIPOS>BOND
     1     1     2    1
     2     1    27    1
     3     1    28    1
     4     1    29    1
     5     2     3    1
     6     2    17    1
     7     2     4    1
     8     4     5    1
     9     4    30    1
    10     4    31    1
    11     5     6    1
    12     5     7    1
    13     5    16    1
    14     7     8   am
    15     7    32    1
    16     8     9    2
    17     8    10    1
    18    10    15    1
    19    10    11    1
    20    10    33    1
    21    11    12    1
    22    11    34    1
    23    11    35    1
    24    12    14    1
    25    12    13    1
    26    12    15    1
    27    13    14    1
    28    13    36    1
    29    13    37    1
    30    14    38    1
    31    14    39    1
    32    15    40    1
    33    15    41    1
    34    16    17    1
    35    16    42    1
    36    16    43    1
    37    17    18   am
    38    18    19    2
    39    18    20    1
    40    20    25    1
    41    20    21    2
    42    21    22    1
    43    21    44    1
    44    22    23    1
    45    22    24    2
    46    24    25    1
    47    24    45    1
    48    25    26    1
    49    26    46    1
    50    26    47    1
    51    26    48    1
@<TRIPOS>SUBSTRUCTURE
     1 ZINC001013196242        1 TEMP              0 ****  ****    0 ROOT


##########                                Name:    ZINC001098311495
##########                DOCK_Rotatable_Bonds:                   8
##########                         Heavy_Atoms:                  24
##########                    Molecular_Weight:             328.454
##########                DOCK_Rotatable_Bonds:                   8
##########                       Formal_Charge:          0.00999987
##########                     HBond_Acceptors:                   4
##########                        HBond_Donors:                   1
##########                         Heavy_Atoms:                  24
##########                          Grid_Score:          -31.161753
##########                     Grid_vdw_energy:          -29.883842
##########                      Grid_es_energy:           -1.277911
##########           Internal_energy_repulsive:           24.812195

@<TRIPOS>MOLECULE
ZINC001098311495
 52 54 1 0 0
SMALL
USER_CHARGES


@<TRIPOS>ATOM
      1 C1        -10.0290   -5.1539   58.0339 C.3     1  ZINC001098311495   -0.1500
      2 C2         -9.6114   -4.1104   59.0720 C.3     1  ZINC001098311495    0.0500
      3 O3        -10.7546   -3.3515   59.4712 O.3     1  ZINC001098311495   -0.2800
      4 C4        -10.5527   -2.3671   60.3825 C.ar    1  ZINC001098311495    0.1900
      5 C5         -9.2875   -2.1535   60.9084 C.ar    1  ZINC001098311495   -0.2200
      6 C6         -9.0848   -1.1552   61.8408 C.ar    1  ZINC001098311495   -0.0500
      7 C7        -10.1390   -0.3567   62.2526 C.ar    1  ZINC001098311495   -0.1700
      8 C8        -11.4018   -0.5510   61.7358 C.ar    1  ZINC001098311495   -0.0500
      9 C9        -11.6209   -1.5573   60.7924 C.ar    1  ZINC001098311495   -0.1800
     10 C10       -12.9702   -1.7708   60.2350 C.2     1  ZINC001098311495    0.5600
     11 O11       -13.8981   -2.0378   60.9742 O.2     1  ZINC001098311495   -0.5200
     12 N12       -13.1743   -1.6700   58.9066 N.am    1  ZINC001098311495   -0.7200
     13 C13       -14.5144   -1.8802   58.3534 C.3     1  ZINC001098311495    0.1600
     14 H14       -15.2757   -1.5388   59.0548 H       1  ZINC001098311495    0.1000
     15 C15       -14.7282   -3.3712   57.9947 C.3     1  ZINC001098311495   -0.1200
     16 C16       -14.9778   -3.3437   56.4565 C.3     1  ZINC001098311495    0.0500
     17 H17       -14.8005   -4.2838   55.9341 H       1  ZINC001098311495    0.1100
     18 C18       -16.3971   -2.7275   56.2702 C.3     1  ZINC001098311495   -0.1500
     19 C19       -16.1918   -1.2333   56.6202 C.3     1  ZINC001098311495   -0.1500
     20 C20       -14.6633   -1.1510   56.9841 C.3     1  ZINC001098311495    0.0400
     21 H21       -14.2176   -0.1586   56.9173 H       1  ZINC001098311495    0.1200
     22 N22       -14.1051   -2.1872   56.0437 N.3     1  ZINC001098311495   -0.4900
     23 C23       -14.3515   -1.8151   54.6441 C.3     1  ZINC001098311495    0.0600
     24 C24       -13.0364   -1.6864   53.9196 C.2     1  ZINC001098311495   -0.1600
     25 C25       -12.3564   -2.7598   53.6009 C.2     1  ZINC001098311495   -0.1200
     26 C26       -11.0413   -2.6312   52.8763 C.3     1  ZINC001098311495   -0.1200
     27 C27       -12.8893   -4.1232   53.9588 C.3     1  ZINC001098311495   -0.1200
     28 H28       -10.7740   -5.8204   58.4682 H       1  ZINC001098311495    0.0700
     29 H29       -10.4535   -4.6518   57.1645 H       1  ZINC001098311495    0.0700
     30 H30        -9.1571   -5.7327   57.7295 H       1  ZINC001098311495    0.0800
     31 H31        -8.8664   -3.4438   58.6377 H       1  ZINC001098311495    0.0600
     32 H32        -9.1869   -4.6125   59.9414 H       1  ZINC001098311495    0.0600
     33 H33        -8.4605   -2.7718   60.5919 H       1  ZINC001098311495    0.1300
     34 H34        -8.0986   -0.9959   62.2510 H       1  ZINC001098311495    0.1300
     35 H35        -9.9705    0.4220   62.9819 H       1  ZINC001098311495    0.1300
     36 H36       -12.2209    0.0738   62.0601 H       1  ZINC001098311495    0.1300
     37 H37       -12.4338   -1.4581   58.3169 H       1  ZINC001098311495    0.4000
     38 H38       -15.5973   -3.7709   58.5173 H       1  ZINC001098311495    0.0800
     39 H39       -13.8372   -3.9537   58.2285 H       1  ZINC001098311495    0.0800
     40 H40       -16.7309   -2.8376   55.2384 H       1  ZINC001098311495    0.0700
     41 H41       -17.1085   -3.1880   56.9559 H       1  ZINC001098311495    0.0800
     42 H42       -16.4237   -0.6027   55.7618 H       1  ZINC001098311495    0.0700
     43 H43       -16.8013   -0.9530   57.4793 H       1  ZINC001098311495    0.0800
     44 H44       -14.8804   -0.8626   54.6091 H       1  ZINC001098311495    0.0500
     45 H45       -14.9568   -2.5846   54.1647 H       1  ZINC001098311495    0.0800
     46 H46       -12.6546   -0.7093   53.6629 H       1  ZINC001098311495    0.1100
     47 H47       -11.2163   -2.6444   51.8006 H       1  ZINC001098311495    0.0700
     48 H48       -10.3931   -3.4639   53.1493 H       1  ZINC001098311495    0.0600
     49 H49       -10.5632   -1.6922   53.1551 H       1  ZINC001098311495    0.0600
     50 H50       -12.5997   -4.3699   54.9803 H       1  ZINC001098311495    0.0700
     51 H51       -13.9764   -4.1207   53.8800 H       1  ZINC001098311495    0.0600
     52 H52       -12.4771   -4.8654   53.2751 H       1  ZINC001098311495    0.0600
@<TRIPOS>BOND
     1     1     2    1
     2     1    28    1
     3     1    29    1
     4     1    30    1
     5     2     3    1
     6     2    31    1
     7     2    32    1
     8     3     4    1
     9     4     9   ar
    10     4     5   ar
    11     5     6   ar
    12     5    33    1
    13     6     7   ar
    14     6    34    1
    15     7     8   ar
    16     7    35    1
    17     8     9   ar
    18     8    36    1
    19     9    10    1
    20    10    11    2
    21    10    12   am
    22    12    13    1
    23    12    37    1
    24    13    14    1
    25    13    20    1
    26    13    15    1
    27    15    16    1
    28    15    38    1
    29    15    39    1
    30    16    17    1
    31    16    22    1
    32    16    18    1
    33    18    19    1
    34    18    40    1
    35    18    41    1
    36    19    20    1
    37    19    42    1
    38    19    43    1
    39    20    21    1
    40    20    22    1
    41    22    23    1
    42    23    24    1
    43    23    44    1
    44    23    45    1
    45    24    25    2
    46    24    46    1
    47    25    26    1
    48    25    27    1
    49    26    47    1
    50    26    48    1
    51    26    49    1
    52    27    50    1
    53    27    51    1
    54    27    52    1
@<TRIPOS>SUBSTRUCTURE
     1 ZINC001098311495        1 TEMP              0 ****  ****    0 ROOT


##########                                Name:    ZINC000558052810
##########                DOCK_Rotatable_Bonds:                   9
##########                         Heavy_Atoms:                  30
##########                    Molecular_Weight:             424.524
##########                DOCK_Rotatable_Bonds:                   9
##########                       Formal_Charge:          -0.0200002
##########                     HBond_Acceptors:                   8
##########                        HBond_Donors:                   1
##########                         Heavy_Atoms:                  30
##########                          Grid_Score:          -31.125854
##########                     Grid_vdw_energy:          -31.807405
##########                      Grid_es_energy:            0.681552
##########           Internal_energy_repulsive:           20.356205

@<TRIPOS>MOLECULE
ZINC000558052810
 54 56 1 0 0
SMALL
USER_CHARGES


@<TRIPOS>ATOM
      1 C1         -7.2288    1.3905   51.8070 C.3     1  ZINC000558052810   -0.1700
      2 C2         -7.9139    0.1332   52.3462 C.3     1  ZINC000558052810    0.1100
      3 N3         -9.3270    0.4200   52.6051 N.am    1  ZINC000558052810   -0.6100
      4 C4         -9.7433    1.7743   52.9778 C.3     1  ZINC000558052810    0.0700
      5 C5        -10.2440   -0.5621   52.5005 C.2     1  ZINC000558052810    0.5600
      6 O6         -9.8988   -1.6857   52.1912 O.2     1  ZINC000558052810   -0.5300
      7 C7        -11.6703   -0.2726   52.7619 C.ar    1  ZINC000558052810   -0.1100
      8 C8        -12.4262    0.4290   51.8215 C.ar    1  ZINC000558052810   -0.1100
      9 C9        -13.7574    0.6981   52.0679 C.ar    1  ZINC000558052810   -0.1000
     10 C10       -14.3464    0.2753   53.2446 C.ar    1  ZINC000558052810   -0.1300
     11 C11       -13.6021   -0.4237   54.1878 C.ar    1  ZINC000558052810    0.1400
     12 N12       -14.2028   -0.8491   55.3774 N.am    1  ZINC000558052810   -0.6600
     13 C13       -14.1435   -2.1469   55.7358 C.2     1  ZINC000558052810    0.5600
     14 O14       -13.5676   -2.9483   55.0249 O.2     1  ZINC000558052810   -0.4800
     15 C15       -14.7762   -2.5949   56.9888 C.ar    1  ZINC000558052810   -0.1900
     16 C16       -16.0779   -2.1956   57.3125 C.ar    1  ZINC000558052810   -0.0200
     17 C17       -16.6268   -2.6437   58.5010 C.ar    1  ZINC000558052810   -0.1900
     18 C18       -15.8826   -3.4654   59.3288 C.ar    1  ZINC000558052810    0.1500
     19 N19       -14.6573   -3.8309   59.0072 N.ar    1  ZINC000558052810   -0.4900
     20 C20       -14.0853   -3.4365   57.8791 C.ar    1  ZINC000558052810    0.1600
     21 S21       -12.4446   -3.9555   57.5001 S.3     1  ZINC000558052810    0.0600
     22 C22       -11.5410   -2.4290   57.8600 C.3     1  ZINC000558052810   -0.0700
     23 C23       -11.0187   -2.4755   59.2728 C.2     1  ZINC000558052810   -0.2000
     24 C24       -11.4957   -1.8240   60.3602 C.2     1  ZINC000558052810   -0.0100
     25 C25       -12.6761   -0.8882   60.4055 C.3     1  ZINC000558052810   -0.0800
     26 O26       -10.7106   -2.1758   61.3881 O.3     1  ZINC000558052810    0.1000
     27 N27        -9.8429   -2.9437   61.0422 N.2     1  ZINC000558052810   -0.3600
     28 C28        -9.9213   -3.2143   59.7713 C.2     1  ZINC000558052810    0.0300
     29 C29        -9.0155   -4.1268   58.9852 C.3     1  ZINC000558052810   -0.0800
     30 C30       -12.2663   -0.7048   53.9468 C.ar    1  ZINC000558052810   -0.0700
     31 H31        -7.7126    1.6990   50.8803 H       1  ZINC000558052810    0.0600
     32 H32        -7.3081    2.1911   52.5424 H       1  ZINC000558052810    0.0600
     33 H33        -6.1774    1.1771   51.6143 H       1  ZINC000558052810    0.0700
     34 H34        -7.8345   -0.6675   51.6108 H       1  ZINC000558052810    0.0800
     35 H35        -7.4299   -0.1754   53.2729 H       1  ZINC000558052810    0.0800
     36 H36        -9.9000    2.3671   52.0766 H       1  ZINC000558052810    0.0600
     37 H37       -10.6717    1.7254   53.5467 H       1  ZINC000558052810    0.0800
     38 H38        -8.9677    2.2380   53.5873 H       1  ZINC000558052810    0.0700
     39 H39       -11.9695    0.7618   50.9012 H       1  ZINC000558052810    0.1400
     40 H40       -14.3406    1.2412   51.3390 H       1  ZINC000558052810    0.1400
     41 H41       -15.3883    0.4891   53.4320 H       1  ZINC000558052810    0.1300
     42 H42       -14.6621   -0.2099   55.9442 H       1  ZINC000558052810    0.4100
     43 H43       -16.6400   -1.5532   56.6509 H       1  ZINC000558052810    0.1400
     44 H44       -17.6289   -2.3537   58.7806 H       1  ZINC000558052810    0.1500
     45 H45       -16.3133   -3.8137   60.2559 H       1  ZINC000558052810    0.1700
     46 H46       -10.7057   -2.3293   57.1669 H       1  ZINC000558052810    0.1000
     47 H47       -12.2100   -1.5757   57.7479 H       1  ZINC000558052810    0.1000
     48 H48       -13.5818   -1.4558   60.6193 H       1  ZINC000558052810    0.0900
     49 H49       -12.5204   -0.1446   61.1870 H       1  ZINC000558052810    0.0900
     50 H50       -12.7800   -0.3874   59.4429 H       1  ZINC000558052810    0.0900
     51 H51        -9.4163   -5.1404   59.0032 H       1  ZINC000558052810    0.0800
     52 H52        -8.9548   -3.7784   57.9542 H       1  ZINC000558052810    0.0800
     53 H53        -8.0201   -4.1219   59.4296 H       1  ZINC000558052810    0.0800
     54 H54       -11.6863   -1.2481   54.6782 H       1  ZINC000558052810    0.1500
@<TRIPOS>BOND
     1     1     2    1
     2     1    31    1
     3     1    32    1
     4     1    33    1
     5     2     3    1
     6     2    34    1
     7     2    35    1
     8     3     4    1
     9     3     5   am
    10     4    36    1
    11     4    37    1
    12     4    38    1
    13     5     6    2
    14     5     7    1
    15     7    30   ar
    16     7     8   ar
    17     8     9   ar
    18     8    39    1
    19     9    10   ar
    20     9    40    1
    21    10    11   ar
    22    10    41    1
    23    11    12    1
    24    11    30   ar
    25    12    13   am
    26    12    42    1
    27    13    14    2
    28    13    15    1
    29    15    20   ar
    30    15    16   ar
    31    16    17   ar
    32    16    43    1
    33    17    18   ar
    34    17    44    1
    35    18    19   ar
    36    18    45    1
    37    19    20   ar
    38    20    21    1
    39    21    22    1
    40    22    23    1
    41    22    46    1
    42    22    47    1
    43    23    28    1
    44    23    24    2
    45    24    25    1
    46    24    26    1
    47    25    48    1
    48    25    49    1
    49    25    50    1
    50    26    27    1
    51    27    28    2
    52    28    29    1
    53    29    51    1
    54    29    52    1
    55    29    53    1
    56    30    54    1
@<TRIPOS>SUBSTRUCTURE
     1 ZINC000558052810        1 TEMP              0 ****  ****    0 ROOT


##########                                Name:    ZINC001110536231
##########                DOCK_Rotatable_Bonds:                   8
##########                         Heavy_Atoms:                  24
##########                    Molecular_Weight:             329.442
##########                DOCK_Rotatable_Bonds:                   8
##########                       Formal_Charge:          -0.0400001
##########                     HBond_Acceptors:                   5
##########                        HBond_Donors:                   1
##########                         Heavy_Atoms:                  24
##########                          Grid_Score:          -31.097406
##########                     Grid_vdw_energy:          -29.954918
##########                      Grid_es_energy:           -1.142488
##########           Internal_energy_repulsive:           30.523527

@<TRIPOS>MOLECULE
ZINC001110536231
 51 53 1 0 0
SMALL
USER_CHARGES


@<TRIPOS>ATOM
      1 C1        -16.4443    0.5354   59.0761 C.3     1  ZINC001110536231   -0.1300
      2 C2        -15.9861   -0.5728   58.1259 C.3     1  ZINC001110536231   -0.1000
      3 C3        -16.4782   -1.9041   58.6325 C.2     1  ZINC001110536231   -0.0200
      4 C4        -17.8451   -2.4018   58.2384 C.3     1  ZINC001110536231   -0.1300
      5 C5        -15.7063   -2.6399   59.4272 C.2     1  ZINC001110536231   -0.2400
      6 C6        -14.3722   -2.1542   59.8118 C.2     1  ZINC001110536231    0.5400
      7 O7        -14.2546   -1.3558   60.7216 O.2     1  ZINC001110536231   -0.5300
      8 N8        -13.2800   -2.5939   59.1558 N.am    1  ZINC001110536231   -0.7300
      9 C9        -11.9511   -2.1115   59.5400 C.3     1  ZINC001110536231    0.1100
     10 H10       -11.8560   -2.0760   60.6252 H       1  ZINC001110536231    0.1000
     11 C11       -11.6776   -0.7180   58.9229 C.3     1  ZINC001110536231   -0.1600
     12 C12       -10.4381   -0.9607   58.0101 C.3     1  ZINC001110536231    0.0500
     13 H13       -10.2870   -0.2284   57.2169 H       1  ZINC001110536231    0.1200
     14 C14        -9.2423   -1.1447   58.9926 C.3     1  ZINC001110536231   -0.1200
     15 C15        -9.5037   -2.5337   59.6247 C.3     1  ZINC001110536231   -0.1100
     16 C16       -10.8403   -3.0125   58.9209 C.3     1  ZINC001110536231    0.0400
     17 H17       -11.0219   -4.0871   58.9372 H       1  ZINC001110536231    0.1200
     18 N18       -10.6848   -2.3768   57.5593 N.3     1  ZINC001110536231   -0.4900
     19 C19       -11.9262   -2.4882   56.7816 C.3     1  ZINC001110536231    0.0600
     20 C20       -11.5920   -2.7774   55.3408 C.ar    1  ZINC001110536231    0.0100
     21 C21       -11.9641   -3.9783   54.7531 C.ar    1  ZINC001110536231   -0.2100
     22 C22       -11.6425   -4.2113   53.4305 C.ar    1  ZINC001110536231    0.1400
     23 N23       -10.9887   -3.3088   52.7243 N.ar    1  ZINC001110536231   -0.5400
     24 C24       -10.6172   -2.1528   53.2492 C.ar    1  ZINC001110536231    0.3200
     25 O25        -9.9467   -1.2531   52.4863 O.3     1  ZINC001110536231   -0.3100
     26 C26        -9.8753    0.0874   52.9761 C.3     1  ZINC001110536231    0.0400
     27 C27       -10.9116   -1.8489   54.5719 C.ar    1  ZINC001110536231   -0.1700
     28 H28       -16.0885    1.4982   58.7096 H       1  ZINC001110536231    0.0500
     29 H29       -17.5332    0.5450   59.1247 H       1  ZINC001110536231    0.0700
     30 H30       -16.0378    0.3524   60.0707 H       1  ZINC001110536231    0.0400
     31 H31       -16.3927   -0.3898   57.1312 H       1  ZINC001110536231    0.0900
     32 H32       -14.8972   -0.5825   58.0772 H       1  ZINC001110536231    0.0600
     33 H33       -17.7688   -2.9848   57.3206 H       1  ZINC001110536231    0.0800
     34 H34       -18.2471   -3.0284   59.0346 H       1  ZINC001110536231    0.0700
     35 H35       -18.5079   -1.5520   58.0750 H       1  ZINC001110536231    0.0700
     36 H36       -16.0590   -3.5940   59.7902 H       1  ZINC001110536231    0.1200
     37 H37       -13.3738   -3.2298   58.4293 H       1  ZINC001110536231    0.4000
     38 H38       -12.5308   -0.3862   58.3313 H       1  ZINC001110536231    0.0700
     39 H39       -11.4442    0.0076   59.7021 H       1  ZINC001110536231    0.0800
     40 H40        -8.2965   -1.1415   58.4508 H       1  ZINC001110536231    0.0700
     41 H41        -9.2505   -0.3676   59.7568 H       1  ZINC001110536231    0.0700
     42 H42        -8.6875   -3.2190   59.3963 H       1  ZINC001110536231    0.0800
     43 H43        -9.6415   -2.4451   60.7023 H       1  ZINC001110536231    0.0700
     44 H44       -12.5350   -3.2982   57.1830 H       1  ZINC001110536231    0.0900
     45 H45       -12.4800   -1.5515   56.8451 H       1  ZINC001110536231    0.0700
     46 H46       -12.4992   -4.7227   55.3240 H       1  ZINC001110536231    0.1300
     47 H47       -11.9296   -5.1443   52.9685 H       1  ZINC001110536231    0.1600
     48 H48        -9.3133    0.7018   52.2726 H       1  ZINC001110536231    0.1000
     49 H49       -10.8828    0.4887   53.0848 H       1  ZINC001110536231    0.0600
     50 H50        -9.3751    0.0942   53.9445 H       1  ZINC001110536231    0.0600
     51 H51       -10.6071   -0.9040   54.9971 H       1  ZINC001110536231    0.1400
@<TRIPOS>BOND
     1     1     2    1
     2     1    28    1
     3     1    29    1
     4     1    30    1
     5     2     3    1
     6     2    31    1
     7     2    32    1
     8     3     4    1
     9     3     5    2
    10     4    33    1
    11     4    34    1
    12     4    35    1
    13     5     6    1
    14     5    36    1
    15     6     7    2
    16     6     8   am
    17     8     9    1
    18     8    37    1
    19     9    10    1
    20     9    16    1
    21     9    11    1
    22    11    12    1
    23    11    38    1
    24    11    39    1
    25    12    13    1
    26    12    18    1
    27    12    14    1
    28    14    15    1
    29    14    40    1
    30    14    41    1
    31    15    16    1
    32    15    42    1
    33    15    43    1
    34    16    17    1
    35    16    18    1
    36    18    19    1
    37    19    20    1
    38    19    44    1
    39    19    45    1
    40    20    27   ar
    41    20    21   ar
    42    21    22   ar
    43    21    46    1
    44    22    23   ar
    45    22    47    1
    46    23    24   ar
    47    24    25    1
    48    24    27   ar
    49    25    26    1
    50    26    48    1
    51    26    49    1
    52    26    50    1
    53    27    51    1
@<TRIPOS>SUBSTRUCTURE
     1 ZINC001110536231        1 TEMP              0 ****  ****    0 ROOT


##########                                Name:    ZINC000469435497
##########                DOCK_Rotatable_Bonds:                   6
##########                         Heavy_Atoms:                  27
##########                    Molecular_Weight:             364.444
##########                DOCK_Rotatable_Bonds:                   6
##########                       Formal_Charge:           0.0300001
##########                     HBond_Acceptors:                   5
##########                        HBond_Donors:                   2
##########                         Heavy_Atoms:                  27
##########                          Grid_Score:          -31.083282
##########                     Grid_vdw_energy:          -27.976801
##########                      Grid_es_energy:           -3.106481
##########           Internal_energy_repulsive:            5.014517

@<TRIPOS>MOLECULE
ZINC000469435497
 51 54 1 0 0
SMALL
USER_CHARGES


@<TRIPOS>ATOM
      1 C1        -13.3145   -3.8279   56.6043 C.3     1  ZINC000469435497   -0.1600
      2 C2        -12.0008   -3.3895   55.9539 C.3     1  ZINC000469435497    0.1000
      3 C3        -12.1393   -3.3499   54.4307 C.3     1  ZINC000469435497   -0.1400
      4 C4        -11.5492   -2.0156   56.5030 C.3     1  ZINC000469435497   -0.1000
      5 C5        -10.6354   -2.4188   57.6442 C.ar    1  ZINC000469435497   -0.1500
      6 C6        -10.1227   -1.7135   58.7093 C.ar    1  ZINC000469435497   -0.0700
      7 C7         -9.2979   -2.3494   59.6293 C.ar    1  ZINC000469435497    0.1100
      8 N8         -8.7732   -1.6370   60.7157 N.am    1  ZINC000469435497   -0.6600
      9 C9         -9.5963   -1.1663   61.6736 C.2     1  ZINC000469435497    0.5100
     10 O10       -10.7911   -1.3594   61.5951 O.2     1  ZINC000469435497   -0.5200
     11 C11        -9.0320   -0.4000   62.8421 C.3     1  ZINC000469435497    0.1000
     12 N12       -10.0687    0.4709   63.4014 N.am    1  ZINC000469435497   -0.7200
     13 C13       -10.0474    0.7888   64.7109 C.2     1  ZINC000469435497    0.5700
     14 O14        -9.1688    0.3518   65.4282 O.2     1  ZINC000469435497   -0.5300
     15 C15       -11.0927    1.6693   65.2750 C.ar    1  ZINC000469435497   -0.1400
     16 C16       -11.0751    2.0000   66.6306 C.ar    1  ZINC000469435497   -0.0800
     17 C17       -12.0537    2.8216   67.1478 C.ar    1  ZINC000469435497   -0.1100
     18 C18       -13.0552    3.3210   66.3297 C.ar    1  ZINC000469435497   -0.0700
     19 C19       -14.2235    4.2273   66.6562 C.3     1  ZINC000469435497   -0.0900
     20 C20       -14.7045    4.7730   65.2950 C.3     1  ZINC000469435497   -0.1200
     21 C21       -14.2628    3.6632   64.3177 C.3     1  ZINC000469435497   -0.0800
     22 C22       -13.0781    2.9965   64.9843 C.ar    1  ZINC000469435497   -0.1100
     23 C23       -12.0987    2.1785   64.4540 C.ar    1  ZINC000469435497   -0.0400
     24 C24        -8.9971   -3.6948   59.4659 C.ar    1  ZINC000469435497   -0.1000
     25 C25        -9.5096   -4.3969   58.3953 C.ar    1  ZINC000469435497   -0.1200
     26 C26       -10.3340   -3.7636   57.4689 C.ar    1  ZINC000469435497    0.1000
     27 O27       -10.9241   -4.2583   56.3450 O.3     1  ZINC000469435497   -0.3000
     28 H28       -13.2037   -3.8193   57.6887 H       1  ZINC000469435497    0.0600
     29 H29       -14.1100   -3.1413   56.3149 H       1  ZINC000469435497    0.0800
     30 H30       -13.5657   -4.8354   56.2727 H       1  ZINC000469435497    0.0700
     31 H31       -12.9136   -2.6339   54.1548 H       1  ZINC000469435497    0.0800
     32 H32       -11.1905   -3.0478   53.9873 H       1  ZINC000469435497    0.0700
     33 H33       -12.4126   -4.3396   54.0649 H       1  ZINC000469435497    0.0700
     34 H34       -11.0021   -1.4542   55.7456 H       1  ZINC000469435497    0.0900
     35 H35       -12.4014   -1.4435   56.8699 H       1  ZINC000469435497    0.0900
     36 H36       -10.3607   -0.6669   58.8295 H       1  ZINC000469435497    0.1400
     37 H37        -7.8176   -1.4826   60.7785 H       1  ZINC000469435497    0.4200
     38 H38        -8.6942   -1.0998   63.6064 H       1  ZINC000469435497    0.1100
     39 H39        -8.1903    0.2060   62.5068 H       1  ZINC000469435497    0.1100
     40 H40       -10.7705    0.8188   62.8292 H       1  ZINC000469435497    0.4100
     41 H41       -10.2973    1.6135   67.2725 H       1  ZINC000469435497    0.1300
     42 H42       -12.0404    3.0774   68.1970 H       1  ZINC000469435497    0.1300
     43 H43       -15.0192    3.6596   67.1385 H       1  ZINC000469435497    0.0900
     44 H44       -13.8991    5.0460   67.2985 H       1  ZINC000469435497    0.0800
     45 H45       -15.7882    4.8891   65.2852 H       1  ZINC000469435497    0.0800
     46 H46       -14.2107    5.7157   65.0594 H       1  ZINC000469435497    0.0700
     47 H47       -15.0691    2.9442   64.1726 H       1  ZINC000469435497    0.0800
     48 H48       -13.9651    4.0965   63.3630 H       1  ZINC000469435497    0.0800
     49 H49       -12.1142    1.9303   63.4030 H       1  ZINC000469435497    0.1400
     50 H50        -8.3587   -4.1936   60.1801 H       1  ZINC000469435497    0.1400
     51 H51        -9.2707   -5.4433   58.2749 H       1  ZINC000469435497    0.1300
@<TRIPOS>BOND
     1     1     2    1
     2     1    28    1
     3     1    29    1
     4     1    30    1
     5     2    27    1
     6     2     3    1
     7     2     4    1
     8     3    31    1
     9     3    32    1
    10     3    33    1
    11     4     5    1
    12     4    34    1
    13     4    35    1
    14     5    26   ar
    15     5     6   ar
    16     6     7   ar
    17     6    36    1
    18     7     8    1
    19     7    24   ar
    20     8     9   am
    21     8    37    1
    22     9    10    2
    23     9    11    1
    24    11    12    1
    25    11    38    1
    26    11    39    1
    27    12    13   am
    28    12    40    1
    29    13    14    2
    30    13    15    1
    31    15    23   ar
    32    15    16   ar
    33    16    17   ar
    34    16    41    1
    35    17    18   ar
    36    17    42    1
    37    18    22   ar
    38    18    19    1
    39    19    20    1
    40    19    43    1
    41    19    44    1
    42    20    21    1
    43    20    45    1
    44    20    46    1
    45    21    22    1
    46    21    47    1
    47    21    48    1
    48    22    23   ar
    49    23    49    1
    50    24    25   ar
    51    24    50    1
    52    25    26   ar
    53    25    51    1
    54    26    27    1
@<TRIPOS>SUBSTRUCTURE
     1 ZINC000469435497        1 TEMP              0 ****  ****    0 ROOT


##########                                Name:    ZINC000650955167
##########                DOCK_Rotatable_Bonds:                   9
##########                         Heavy_Atoms:                  26
##########                    Molecular_Weight:             361.484
##########                DOCK_Rotatable_Bonds:                   9
##########                       Formal_Charge:        -7.07805e-07
##########                     HBond_Acceptors:                   6
##########                        HBond_Donors:                   2
##########                         Heavy_Atoms:                  26
##########                          Grid_Score:          -31.071947
##########                     Grid_vdw_energy:          -29.771152
##########                      Grid_es_energy:           -1.300794
##########           Internal_energy_repulsive:           20.175337

@<TRIPOS>MOLECULE
ZINC000650955167
 57 59 1 0 0
SMALL
USER_CHARGES


@<TRIPOS>ATOM
      1 C1        -14.3815   -1.9416   60.2422 C.3     1  ZINC000650955167    0.0200
      2 O2        -14.9805   -1.9695   58.9451 O.3     1  ZINC000650955167   -0.3200
      3 C3        -14.4484   -2.8306   58.0382 C.ar    1  ZINC000650955167    0.1300
      4 C4        -14.7134   -4.1889   58.1315 C.ar    1  ZINC000650955167   -0.2000
      5 C5        -14.1717   -5.0623   57.2079 C.ar    1  ZINC000650955167   -0.0800
      6 C6        -13.3659   -4.5833   56.1919 C.ar    1  ZINC000650955167   -0.1500
      7 C7        -13.0998   -3.2296   56.0970 C.ar    1  ZINC000650955167   -0.0800
      8 C8        -13.6440   -2.3517   57.0141 C.ar    1  ZINC000650955167   -0.1100
      9 C9        -13.3541   -0.8766   56.9099 C.3     1  ZINC000650955167   -0.0800
     10 C10       -11.8706   -0.6273   57.1890 C.3     1  ZINC000650955167    0.1800
     11 H11       -11.2922   -1.4998   56.8853 H       1  ZINC000650955167    0.0900
     12 N12       -11.6769   -0.3872   58.6212 N.am    1  ZINC000650955167   -0.7300
     13 C13       -10.5950   -0.8899   59.2484 C.2     1  ZINC000650955167    0.7400
     14 O14        -9.7791   -1.5414   58.6253 O.2     1  ZINC000650955167   -0.5800
     15 N15       -10.4176   -0.6704   60.5663 N.am    1  ZINC000650955167   -0.6700
     16 C16       -11.1506    0.0308   61.6311 C.3     1  ZINC000650955167    0.1100
     17 C17        -9.8077    0.2364   62.3455 C.3     1  ZINC000650955167    0.0300
     18 N18        -9.8670    0.0579   63.8025 N.3     1  ZINC000650955167   -0.5100
     19 C19       -10.5164    1.2164   64.4522 C.3     1  ZINC000650955167    0.0400
     20 C20        -9.7958    1.3604   65.8159 C.3     1  ZINC000650955167   -0.1600
     21 C21        -8.3356    0.9967   65.4387 C.3     1  ZINC000650955167    0.0800
     22 H22        -7.8193    1.8603   65.0196 H       1  ZINC000650955167    0.0600
     23 O23        -7.6312    0.4914   66.5748 O.3     1  ZINC000650955167   -0.5600
     24 C24        -8.5159   -0.1025   64.3707 C.3     1  ZINC000650955167    0.0500
     25 C25        -9.4091   -1.0322   61.5737 C.3     1  ZINC000650955167    0.1400
     26 C26       -11.4015    0.5959   56.3987 C.3     1  ZINC000650955167   -0.1100
     27 C27       -11.2743    0.2289   54.9188 C.3     1  ZINC000650955167   -0.1400
     28 C28       -12.4195    1.7270   56.5580 C.3     1  ZINC000650955167   -0.1500
     29 H29       -14.9002   -1.2140   60.8664 H       1  ZINC000650955167    0.1000
     30 H30       -14.4553   -2.9292   60.6978 H       1  ZINC000650955167    0.0600
     31 H31       -13.3322   -1.6606   60.1520 H       1  ZINC000650955167    0.0600
     32 H32       -15.3423   -4.5637   58.9255 H       1  ZINC000650955167    0.1300
     33 H33       -14.3777   -6.1200   57.2801 H       1  ZINC000650955167    0.1200
     34 H34       -12.9431   -5.2676   55.4712 H       1  ZINC000650955167    0.1200
     35 H35       -12.4698   -2.8580   55.3025 H       1  ZINC000650955167    0.1300
     36 H36       -13.5985   -0.5283   55.9063 H       1  ZINC000650955167    0.0900
     37 H37       -13.9570   -0.3354   57.6391 H       1  ZINC000650955167    0.0800
     38 H38       -12.3272    0.1336   59.1179 H       1  ZINC000650955167    0.4000
     39 H39       -11.6130    0.9607   61.3000 H       1  ZINC000650955167    0.0700
     40 H40       -11.8399   -0.6115   62.1791 H       1  ZINC000650955167    0.0900
     41 H41        -9.2739    1.1374   62.0433 H       1  ZINC000650955167    0.0900
     42 H42       -10.3763    2.1156   63.8522 H       1  ZINC000650955167    0.0500
     43 H43       -11.5781    1.0211   64.6028 H       1  ZINC000650955167    0.0900
     44 H44        -9.8603    2.3839   66.1855 H       1  ZINC000650955167    0.0800
     45 H45       -10.1972    0.6573   66.5457 H       1  ZINC000650955167    0.0900
     46 H46        -6.7249    0.2133   66.3838 H       1  ZINC000650955167    0.3800
     47 H47        -8.4217   -1.0860   64.8310 H       1  ZINC000650955167    0.0900
     48 H48        -7.7677    0.0157   63.5869 H       1  ZINC000650955167    0.0700
     49 H49        -9.6359   -1.9547   62.1080 H       1  ZINC000650955167    0.0900
     50 H50        -8.3883   -1.0056   61.1923 H       1  ZINC000650955167    0.0800
     51 H51       -10.4328    0.9230   56.7765 H       1  ZINC000650955167    0.0700
     52 H52       -12.2429   -0.0982   54.5409 H       1  ZINC000650955167    0.0600
     53 H53       -10.9402    1.1004   54.3558 H       1  ZINC000650955167    0.0400
     54 H54       -10.5491   -0.5769   54.8054 H       1  ZINC000650955167    0.0500
     55 H55       -12.5102    1.9885   57.6123 H       1  ZINC000650955167    0.0600
     56 H56       -12.0853    2.5985   55.9950 H       1  ZINC000650955167    0.0600
     57 H57       -13.3882    1.3998   56.1801 H       1  ZINC000650955167    0.0600
@<TRIPOS>BOND
     1     1     2    1
     2     1    29    1
     3     1    30    1
     4     1    31    1
     5     2     3    1
     6     3     8   ar
     7     3     4   ar
     8     4     5   ar
     9     4    32    1
    10     5     6   ar
    11     5    33    1
    12     6     7   ar
    13     6    34    1
    14     7     8   ar
    15     7    35    1
    16     8     9    1
    17     9    10    1
    18     9    36    1
    19     9    37    1
    20    10    11    1
    21    10    12    1
    22    10    26    1
    23    12    13   am
    24    12    38    1
    25    13    14    2
    26    13    15   am
    27    15    25    1
    28    15    16    1
    29    16    17    1
    30    16    39    1
    31    16    40    1
    32    17    18    1
    33    17    25    1
    34    17    41    1
    35    18    24    1
    36    18    19    1
    37    19    20    1
    38    19    42    1
    39    19    43    1
    40    20    21    1
    41    20    44    1
    42    20    45    1
    43    21    22    1
    44    21    23    1
    45    21    24    1
    46    23    46    1
    47    24    47    1
    48    24    48    1
    49    25    49    1
    50    25    50    1
    51    26    27    1
    52    26    28    1
    53    26    51    1
    54    27    52    1
    55    27    53    1
    56    27    54    1
    57    28    55    1
    58    28    56    1
    59    28    57    1
@<TRIPOS>SUBSTRUCTURE
     1 ZINC000650955167        1 TEMP              0 ****  ****    0 ROOT


##########                                Name:    ZINC000836820897
##########                DOCK_Rotatable_Bonds:                   5
##########                         Heavy_Atoms:                  22
##########                    Molecular_Weight:             330.355
##########                DOCK_Rotatable_Bonds:                   5
##########                       Formal_Charge:          -0.0200003
##########                     HBond_Acceptors:                   8
##########                        HBond_Donors:                   1
##########                         Heavy_Atoms:                  22
##########                          Grid_Score:          -31.038935
##########                     Grid_vdw_energy:          -31.273481
##########                      Grid_es_energy:            0.234546
##########           Internal_energy_repulsive:            8.895238

@<TRIPOS>MOLECULE
ZINC000836820897
 38 40 1 0 0
SMALL
USER_CHARGES


@<TRIPOS>ATOM
      1 O1        -13.2860   -5.3659   55.3949 O.2     1  ZINC000836820897   -0.5200
      2 C2        -12.6773   -4.3257   55.5540 C.2     1  ZINC000836820897    0.5800
      3 C3        -12.5068   -3.7701   56.9122 C.ar    1  ZINC000836820897   -0.1600
      4 C4        -13.5963   -3.2098   57.5819 C.ar    1  ZINC000836820897   -0.0100
      5 C5        -13.4316   -2.6932   58.8494 C.ar    1  ZINC000836820897   -0.1700
      6 C6        -12.1871   -2.7292   59.4591 C.ar    1  ZINC000836820897    0.2200
      7 F7        -12.0312   -2.2216   60.7014 F       1  ZINC000836820897   -0.1100
      8 C8        -11.1017   -3.2851   58.7986 C.ar    1  ZINC000836820897   -0.7200
      9 S9         -9.5237   -3.3279   59.5814 S.o2    1  ZINC000836820897    2.7000
     10 O10        -9.7707   -3.4388   60.9763 O.2     1  ZINC000836820897   -0.9400
     11 O11        -8.7402   -4.2639   58.8540 O.2     1  ZINC000836820897   -0.9400
     12 N12        -8.8202   -1.8471   59.3474 N.am    1  ZINC000836820897   -1.0800
     13 C13        -9.4732   -0.6376   59.8541 C.3     1  ZINC000836820897    0.0700
     14 C14        -9.0585    0.7001   59.2380 C.3     1  ZINC000836820897   -0.1800
     15 C15       -10.4266    0.0985   58.9107 C.3     1  ZINC000836820897   -0.1900
     16 C16       -11.2563   -3.8088   57.5332 C.ar    1  ZINC000836820897    0.0600
     17 N17       -12.1532   -3.6822   54.4921 N.am    1  ZINC000836820897   -0.6200
     18 C18       -12.2528   -4.1179   53.0914 C.3     1  ZINC000836820897    0.0900
     19 C19       -11.5310   -3.0602   52.2301 C.3     1  ZINC000836820897   -0.1600
     20 C20       -11.5551   -1.8000   53.1349 C.3     1  ZINC000836820897    0.0800
     21 H21       -12.5078   -1.2772   53.0515 H       1  ZINC000836820897    0.1100
     22 F22       -10.4892   -0.9456   52.8331 F       1  ZINC000836820897   -0.1900
     23 C23       -11.3905   -2.4216   54.5419 C.3     1  ZINC000836820897    0.0800
     24 H24       -14.5662   -3.1808   57.1076 H       1  ZINC000836820897    0.1500
     25 H25       -14.2737   -2.2592   59.3682 H       1  ZINC000836820897    0.1600
     26 H26        -7.9757   -1.7806   58.8748 H       1  ZINC000836820897    0.4200
     27 H27        -9.7231   -0.6475   60.9150 H       1  ZINC000836820897    0.1400
     28 H28        -9.0353    1.5705   59.8937 H       1  ZINC000836820897    0.1100
     29 H29        -8.2998    0.6801   58.4557 H       1  ZINC000836820897    0.1000
     30 H30       -10.5681   -0.3172   57.9130 H       1  ZINC000836820897    0.1000
     31 H31       -11.3036    0.5731   59.3510 H       1  ZINC000836820897    0.1000
     32 H32       -10.4105   -4.2416   57.0198 H       1  ZINC000836820897    0.1600
     33 H33       -11.7700   -5.0875   52.9696 H       1  ZINC000836820897    0.0800
     34 H34       -13.3004   -4.1836   52.7972 H       1  ZINC000836820897    0.0800
     35 H35       -10.5058   -3.3663   52.0224 H       1  ZINC000836820897    0.0900
     36 H36       -12.0761   -2.8801   51.3035 H       1  ZINC000836820897    0.1000
     37 H37       -11.8009   -1.7558   55.3012 H       1  ZINC000836820897    0.1000
     38 H38       -10.3397   -2.6280   54.7449 H       1  ZINC000836820897    0.0900
@<TRIPOS>BOND
     1     1     2    2
     2     2     3    1
     3     2    17   am
     4     3    16   ar
     5     3     4   ar
     6     4     5   ar
     7     4    24    1
     8     5     6   ar
     9     5    25    1
    10     6     7    1
    11     6     8   ar
    12     8     9    1
    13     8    16   ar
    14     9    10    2
    15     9    11    2
    16     9    12   am
    17    12    13    1
    18    12    26    1
    19    13    15    1
    20    13    14    1
    21    13    27    1
    22    14    15    1
    23    14    28    1
    24    14    29    1
    25    15    30    1
    26    15    31    1
    27    16    32    1
    28    17    23    1
    29    17    18    1
    30    18    19    1
    31    18    33    1
    32    18    34    1
    33    19    20    1
    34    19    35    1
    35    19    36    1
    36    20    21    1
    37    20    22    1
    38    20    23    1
    39    23    37    1
    40    23    38    1
@<TRIPOS>SUBSTRUCTURE
     1 ZINC000836820897        1 TEMP              0 ****  ****    0 ROOT


##########                                Name:    ZINC000888733009
##########                DOCK_Rotatable_Bonds:                   6
##########                         Heavy_Atoms:                  25
##########                    Molecular_Weight:             360.434
##########                DOCK_Rotatable_Bonds:                   6
##########                       Formal_Charge:        -1.02073e-06
##########                     HBond_Acceptors:                   7
##########                        HBond_Donors:                   2
##########                         Heavy_Atoms:                  25
##########                          Grid_Score:          -31.023197
##########                     Grid_vdw_energy:          -30.270956
##########                      Grid_es_energy:           -0.752240
##########           Internal_energy_repulsive:            7.464126

@<TRIPOS>MOLECULE
ZINC000888733009
 45 48 1 0 0
SMALL
USER_CHARGES


@<TRIPOS>ATOM
      1 C1        -10.7830    0.3601   63.7228 C.3     1  ZINC000888733009   -0.1500
      2 C2        -10.0316    0.1879   62.4011 C.3     1  ZINC000888733009    0.0700
      3 H3         -9.4120    1.0621   62.2014 H       1  ZINC000888733009    0.0700
      4 C4        -11.0293   -0.0414   61.2405 C.3     1  ZINC000888733009   -0.1300
      5 C5        -10.3159   -1.0652   60.3474 C.3     1  ZINC000888733009   -0.1100
      6 C6        -11.1376   -2.2893   59.9514 C.3     1  ZINC000888733009   -0.1300
      7 C7        -10.4418   -2.2034   58.5804 C.3     1  ZINC000888733009    0.1200
      8 N8        -11.3389   -2.4593   57.4509 N.am    1  ZINC000888733009   -0.7100
      9 C9        -11.6639   -3.7252   57.1217 C.2     1  ZINC000888733009    0.5900
     10 O10       -11.2133   -4.6558   57.7638 O.2     1  ZINC000888733009   -0.5600
     11 C11       -12.5602   -3.9812   55.9903 C.2     1  ZINC000888733009   -0.2400
     12 C12       -12.4418   -3.3611   54.7730 C.2     1  ZINC000888733009    0.0800
     13 N13       -11.4719   -2.4241   54.4573 N.am    1  ZINC000888733009   -0.6100
     14 C14       -10.8075   -2.5097   53.2877 C.2     1  ZINC000888733009    0.6000
     15 O15       -11.0610   -3.4094   52.5083 O.2     1  ZINC000888733009   -0.4900
     16 C16        -9.7798   -1.5190   52.9543 C.2     1  ZINC000888733009   -0.0900
     17 C17        -9.3939   -0.4683   53.7370 C.2     1  ZINC000888733009   -0.1000
     18 C18        -8.3909    0.2138   53.0308 C.2     1  ZINC000888733009   -0.2300
     19 C19        -8.2107   -0.4418   51.8629 C.2     1  ZINC000888733009    0.0100
     20 O20        -9.0452   -1.4887   51.8230 O.3     1  ZINC000888733009   -0.1600
     21 S21       -13.6519   -3.9022   53.7015 S.3     1  ZINC000888733009    0.3000
     22 C22       -14.3386   -4.9843   54.9001 C.2     1  ZINC000888733009   -0.2800
     23 C23       -13.6602   -4.9193   56.0368 C.2     1  ZINC000888733009   -0.0900
     24 C24       -10.2232   -0.7063   58.8666 C.3     1  ZINC000888733009   -0.1400
     25 C25        -8.9830   -1.3536   61.0508 C.3     1  ZINC000888733009    0.0700
     26 O26        -9.2193   -1.0069   62.4365 O.3     1  ZINC000888733009   -0.3700
     27 H27       -10.0666    0.4936   64.5333 H       1  ZINC000888733009    0.0600
     28 H28       -11.4298    1.2353   63.6616 H       1  ZINC000888733009    0.0700
     29 H29       -11.3880   -0.5260   63.9149 H       1  ZINC000888733009    0.0600
     30 H30       -11.9678   -0.4489   61.6166 H       1  ZINC000888733009    0.0800
     31 H31       -11.2039    0.8866   60.6961 H       1  ZINC000888733009    0.0800
     32 H32       -10.8847   -3.1873   60.5151 H       1  ZINC000888733009    0.0800
     33 H33       -12.2105   -2.1013   59.9102 H       1  ZINC000888733009    0.0900
     34 H34        -9.5169   -2.7775   58.5242 H       1  ZINC000888733009    0.1200
     35 H35       -11.6990   -1.7176   56.9399 H       1  ZINC000888733009    0.4000
     36 H36       -11.2707   -1.7064   55.0779 H       1  ZINC000888733009    0.4400
     37 H37        -9.7850   -0.2118   54.7104 H       1  ZINC000888733009    0.1700
     38 H38        -7.8627    1.0969   53.3589 H       1  ZINC000888733009    0.1600
     39 H39        -7.5064   -0.1693   51.0909 H       1  ZINC000888733009    0.2200
     40 H40       -15.1953   -5.6202   54.7328 H       1  ZINC000888733009    0.1700
     41 H41       -13.9087   -5.5017   56.9118 H       1  ZINC000888733009    0.1500
     42 H42       -11.0375   -0.0707   58.5186 H       1  ZINC000888733009    0.0900
     43 H43        -9.2410   -0.3420   58.5652 H       1  ZINC000888733009    0.0800
     44 H44        -8.7259   -2.4090   60.9607 H       1  ZINC000888733009    0.0900
     45 H45        -8.1908   -0.7313   60.6346 H       1  ZINC000888733009    0.0700
@<TRIPOS>BOND
     1     1     2    1
     2     1    27    1
     3     1    28    1
     4     1    29    1
     5     2     3    1
     6     2    26    1
     7     2     4    1
     8     4     5    1
     9     4    30    1
    10     4    31    1
    11     5    24    1
    12     5     6    1
    13     5    25    1
    14     6     7    1
    15     6    32    1
    16     6    33    1
    17     7     8    1
    18     7    24    1
    19     7    34    1
    20     8     9   am
    21     8    35    1
    22     9    10    2
    23     9    11    1
    24    11    23    1
    25    11    12    2
    26    12    13    1
    27    12    21    1
    28    13    14   am
    29    13    36    1
    30    14    15    2
    31    14    16    1
    32    16    20    1
    33    16    17    2
    34    17    18    1
    35    17    37    1
    36    18    19    2
    37    18    38    1
    38    19    20    1
    39    19    39    1
    40    21    22    1
    41    22    23    2
    42    22    40    1
    43    23    41    1
    44    24    42    1
    45    24    43    1
    46    25    26    1
    47    25    44    1
    48    25    45    1
@<TRIPOS>SUBSTRUCTURE
     1 ZINC000888733009        1 TEMP              0 ****  ****    0 ROOT


##########                                Name:    ZINC000154446008
##########                DOCK_Rotatable_Bonds:                   5
##########                         Heavy_Atoms:                  24
##########                    Molecular_Weight:              349.41
##########                DOCK_Rotatable_Bonds:                   5
##########                       Formal_Charge:          -0.0199999
##########                     HBond_Acceptors:                   8
##########                        HBond_Donors:                   0
##########                         Heavy_Atoms:                  24
##########                          Grid_Score:          -31.009844
##########                     Grid_vdw_energy:          -30.296413
##########                      Grid_es_energy:           -0.713431
##########           Internal_energy_repulsive:           13.249743

@<TRIPOS>MOLECULE
ZINC000154446008
 43 45 1 0 0
SMALL
USER_CHARGES


@<TRIPOS>ATOM
      1 O1         -8.8306   -0.0161   59.2791 O.2     1  ZINC000154446008   -0.5000
      2 C2         -9.5594   -0.4834   60.1344 C.2     1  ZINC000154446008    0.5900
      3 C3         -9.4078   -0.0696   61.5325 C.2     1  ZINC000154446008   -0.2300
      4 C4         -9.8821    1.0934   62.0708 C.2     1  ZINC000154446008   -0.0600
      5 C5         -9.5989    1.2282   63.4093 C.2     1  ZINC000154446008   -0.0500
      6 C6         -8.9165    0.2121   63.9502 C.2     1  ZINC000154446008   -0.2100
      7 N7         -8.5025    0.1409   65.3696 N.pl3   1  ZINC000154446008    0.0500
      8 O8         -7.9482   -0.8576   65.7929 O.2     1  ZINC000154446008   -0.1300
      9 O9         -8.7163    1.0808   66.1142 O.2     1  ZINC000154446008   -0.1500
     10 S10        -8.5933   -0.9937   62.7871 S.3     1  ZINC000154446008    0.3500
     11 N11       -10.5094   -1.3772   59.7954 N.am    1  ZINC000154446008   -0.6100
     12 C12       -11.4045   -1.9406   60.8158 C.3     1  ZINC000154446008    0.0800
     13 C13       -12.8556   -1.6876   60.3885 C.3     1  ZINC000154446008    0.0900
     14 N14       -13.0153   -2.1158   58.9918 N.am    1  ZINC000154446008   -0.6100
     15 C15       -13.9660   -3.0090   58.6526 C.2     1  ZINC000154446008    0.5500
     16 O16       -14.7012   -3.4679   59.5058 O.2     1  ZINC000154446008   -0.5300
     17 C17       -14.1144   -3.4285   57.2505 C.2     1  ZINC000154446008   -0.1500
     18 C18       -14.8956   -2.7143   56.4694 C.2     1  ZINC000154446008   -0.1100
     19 C19       -15.1456   -3.0312   55.0237 C.3     1  ZINC000154446008   -0.1000
     20 C20       -14.0744   -3.9913   54.5021 C.3     1  ZINC000154446008   -0.1200
     21 C21       -13.9550   -5.1658   55.4811 C.3     1  ZINC000154446008   -0.1200
     22 C22       -13.3610   -4.6431   56.7924 C.3     1  ZINC000154446008   -0.0700
     23 C23       -12.1202   -1.5524   57.9713 C.3     1  ZINC000154446008    0.1000
     24 C24       -10.6729   -1.8013   58.3978 C.3     1  ZINC000154446008    0.1000
     25 H25       -10.4254    1.8330   61.5014 H       1  ZINC000154446008    0.1800
     26 H26        -9.9044    2.0912   63.9822 H       1  ZINC000154446008    0.1800
     27 H27       -11.2306   -3.0131   60.9030 H       1  ZINC000154446008    0.0900
     28 H28       -11.2160   -1.4578   61.7746 H       1  ZINC000154446008    0.0900
     29 H29       -13.5298   -2.2596   61.0259 H       1  ZINC000154446008    0.1100
     30 H30       -13.0818   -0.6246   60.4734 H       1  ZINC000154446008    0.0800
     31 H31       -15.3858   -1.8501   56.8929 H       1  ZINC000154446008    0.1100
     32 H32       -16.1270   -3.4939   54.9197 H       1  ZINC000154446008    0.0900
     33 H33       -15.1192   -2.1098   54.4420 H       1  ZINC000154446008    0.0800
     34 H34       -14.3626   -4.3622   53.5186 H       1  ZINC000154446008    0.0700
     35 H35       -13.1184   -3.4718   54.4351 H       1  ZINC000154446008    0.0700
     36 H36       -14.9417   -5.5903   55.6658 H       1  ZINC000154446008    0.0700
     37 H37       -13.2984   -5.9276   55.0607 H       1  ZINC000154446008    0.0700
     38 H38       -12.3127   -4.3878   56.6378 H       1  ZINC000154446008    0.0800
     39 H39       -13.4334   -5.4175   57.5560 H       1  ZINC000154446008    0.0700
     40 H40       -12.3088   -2.0352   57.0125 H       1  ZINC000154446008    0.1100
     41 H41       -12.2941   -0.4799   57.8841 H       1  ZINC000154446008    0.0800
     42 H42        -9.9998   -1.2287   57.7596 H       1  ZINC000154446008    0.1100
     43 H43       -10.4444   -2.8637   58.3143 H       1  ZINC000154446008    0.0800
@<TRIPOS>BOND
     1     1     2    2
     2     2     3    1
     3     2    11   am
     4     3    10    1
     5     3     4    2
     6     4     5    1
     7     4    25    1
     8     5     6    2
     9     5    26    1
    10     6     7    1
    11     6    10    1
    12     7     8    2
    13     7     9    2
    14    11    24    1
    15    11    12    1
    16    12    13    1
    17    12    27    1
    18    12    28    1
    19    13    14    1
    20    13    29    1
    21    13    30    1
    22    14    15   am
    23    14    23    1
    24    15    16    2
    25    15    17    1
    26    17    22    1
    27    17    18    2
    28    18    19    1
    29    18    31    1
    30    19    20    1
    31    19    32    1
    32    19    33    1
    33    20    21    1
    34    20    34    1
    35    20    35    1
    36    21    22    1
    37    21    36    1
    38    21    37    1
    39    22    38    1
    40    22    39    1
    41    23    24    1
    42    23    40    1
    43    23    41    1
    44    24    42    1
    45    24    43    1
@<TRIPOS>SUBSTRUCTURE
     1 ZINC000154446008        1 TEMP              0 ****  ****    0 ROOT


##########                                Name:    ZINC000494558165
##########                DOCK_Rotatable_Bonds:                  11
##########                         Heavy_Atoms:                  28
##########                    Molecular_Weight:             409.506
##########                DOCK_Rotatable_Bonds:                  11
##########                       Formal_Charge:        -6.55651e-07
##########                     HBond_Acceptors:                   9
##########                        HBond_Donors:                   3
##########                         Heavy_Atoms:                  28
##########                          Grid_Score:          -30.963001
##########                     Grid_vdw_energy:          -27.327089
##########                      Grid_es_energy:           -3.635913
##########           Internal_energy_repulsive:           31.796181

@<TRIPOS>MOLECULE
ZINC000494558165
 55 57 1 0 0
SMALL
USER_CHARGES


@<TRIPOS>ATOM
      1 O1        -14.1725   -2.1777   61.8031 O.2     1  ZINC000494558165   -0.4400
      2 C2        -13.2617   -1.4444   61.4829 C.2     1  ZINC000494558165    0.5100
      3 C3        -12.5241   -1.6793   60.1900 C.3     1  ZINC000494558165    0.0300
      4 N4        -13.4920   -1.8622   59.1002 N.3     1  ZINC000494558165   -0.5000
      5 C5        -14.3848   -0.7010   58.9887 C.3     1  ZINC000494558165    0.0500
      6 C6        -15.8190   -1.1279   59.3078 C.3     1  ZINC000494558165   -0.1100
      7 C7        -16.7992   -0.1569   58.6465 C.3     1  ZINC000494558165    0.0800
      8 O8        -16.7974    1.0813   59.3598 O.3     1  ZINC000494558165   -0.5700
      9 C9        -12.8079   -2.1246   57.8269 C.3     1  ZINC000494558165    0.1200
     10 H10       -12.6316   -1.1905   57.2936 H       1  ZINC000494558165    0.1000
     11 C11       -13.6442   -3.0879   56.9581 C.3     1  ZINC000494558165   -0.1200
     12 C12       -13.0696   -4.4671   57.3454 C.3     1  ZINC000494558165   -0.0900
     13 C13       -11.6508   -4.1928   57.7957 C.ar    1  ZINC000494558165   -0.0900
     14 C14       -10.5767   -5.0525   57.9513 C.ar    1  ZINC000494558165   -0.1100
     15 C15        -9.3562   -4.5694   58.3820 C.ar    1  ZINC000494558165   -0.1100
     16 C16        -9.2058   -3.2236   58.6586 C.ar    1  ZINC000494558165   -0.1200
     17 C17       -10.2764   -2.3642   58.5039 C.ar    1  ZINC000494558165   -0.1000
     18 C18       -11.4990   -2.8442   58.0726 C.ar    1  ZINC000494558165   -0.1300
     19 N19       -12.9127   -0.4156   62.2805 N.am    1  ZINC000494558165   -0.6900
     20 C20       -13.5725   -0.2055   63.4369 C.2     1  ZINC000494558165    0.7000
     21 O21       -14.4832   -0.9427   63.7596 O.2     1  ZINC000494558165   -0.5200
     22 N22       -13.2224    0.8224   64.2353 N.am    1  ZINC000494558165   -0.7300
     23 C23       -13.9383    1.0497   65.4930 C.3     1  ZINC000494558165    0.1700
     24 H24       -14.2947    0.0987   65.8889 H       1  ZINC000494558165    0.1200
     25 C25       -12.9958    1.7136   66.5123 C.3     1  ZINC000494558165   -0.1400
     26 C26       -13.8866    2.2213   67.6753 C.3     1  ZINC000494558165   -0.5800
     27 S27       -15.3208    2.9447   66.7925 S.o2    1  ZINC000494558165    2.4000
     28 O28       -16.5211    2.5567   67.4468 O.2     1  ZINC000494558165   -0.9300
     29 O29       -15.0691    4.3187   66.5319 O.2     1  ZINC000494558165   -0.9300
     30 C30       -15.1351    1.9894   65.2456 C.3     1  ZINC000494558165   -0.6200
     31 H31       -11.8898   -0.8199   59.9722 H       1  ZINC000494558165    0.0700
     32 H32       -11.9065   -2.5728   60.2812 H       1  ZINC000494558165    0.1200
     33 H33       -14.0696    0.0687   59.6930 H       1  ZINC000494558165    0.0900
     34 H34       -14.3408   -0.3050   57.9741 H       1  ZINC000494558165    0.0400
     35 H35       -15.9918   -2.1344   58.9267 H       1  ZINC000494558165    0.0700
     36 H36       -15.9696   -1.1172   60.3872 H       1  ZINC000494558165    0.0800
     37 H37       -16.4964    0.0181   57.6140 H       1  ZINC000494558165    0.0500
     38 H38       -17.8016   -0.5846   58.6637 H       1  ZINC000494558165    0.0400
     39 H39       -15.9360    1.5200   59.3841 H       1  ZINC000494558165    0.3800
     40 H40       -14.7014   -3.0227   57.2153 H       1  ZINC000494558165    0.0900
     41 H41       -13.4891   -2.8872   55.8981 H       1  ZINC000494558165    0.0800
     42 H42       -13.6476   -4.9023   58.1605 H       1  ZINC000494558165    0.0800
     43 H43       -13.0705   -5.1329   56.4825 H       1  ZINC000494558165    0.0800
     44 H44       -10.6935   -6.1043   57.7357 H       1  ZINC000494558165    0.1200
     45 H45        -8.5203   -5.2426   58.5021 H       1  ZINC000494558165    0.1300
     46 H46        -8.2525   -2.8443   58.9958 H       1  ZINC000494558165    0.1200
     47 H47       -10.1582   -1.3128   58.7206 H       1  ZINC000494558165    0.1200
     48 H48       -12.1867    0.1736   62.0225 H       1  ZINC000494558165    0.4100
     49 H49       -12.4963    1.4115   63.9772 H       1  ZINC000494558165    0.4000
     50 H50       -12.2755    0.9849   66.8844 H       1  ZINC000494558165    0.1100
     51 H51       -12.4744    2.5509   66.0483 H       1  ZINC000494558165    0.0900
     52 H52       -14.2011    1.3938   68.3113 H       1  ZINC000494558165    0.1400
     53 H53       -13.3666    2.9821   68.2572 H       1  ZINC000494558165    0.1400
     54 H54       -14.9268    2.6582   64.4106 H       1  ZINC000494558165    0.1500
     55 H55       -16.0356    1.4073   65.0500 H       1  ZINC000494558165    0.1500
@<TRIPOS>BOND
     1     1     2    2
     2     2     3    1
     3     2    19   am
     4     3     4    1
     5     3    31    1
     6     3    32    1
     7     4     5    1
     8     4     9    1
     9     5     6    1
    10     5    33    1
    11     5    34    1
    12     6     7    1
    13     6    35    1
    14     6    36    1
    15     7     8    1
    16     7    37    1
    17     7    38    1
    18     8    39    1
    19     9    10    1
    20     9    18    1
    21     9    11    1
    22    11    12    1
    23    11    40    1
    24    11    41    1
    25    12    13    1
    26    12    42    1
    27    12    43    1
    28    13    18   ar
    29    13    14   ar
    30    14    15   ar
    31    14    44    1
    32    15    16   ar
    33    15    45    1
    34    16    17   ar
    35    16    46    1
    36    17    18   ar
    37    17    47    1
    38    19    20   am
    39    19    48    1
    40    20    21    2
    41    20    22   am
    42    22    23    1
    43    22    49    1
    44    23    24    1
    45    23    30    1
    46    23    25    1
    47    25    26    1
    48    25    50    1
    49    25    51    1
    50    26    27    1
    51    26    52    1
    52    26    53    1
    53    27    28    2
    54    27    29    2
    55    27    30    1
    56    30    54    1
    57    30    55    1
@<TRIPOS>SUBSTRUCTURE
     1 ZINC000494558165        1 TEMP              0 ****  ****    0 ROOT


##########                                Name:    ZINC001371344729
##########                DOCK_Rotatable_Bonds:                   9
##########                         Heavy_Atoms:                  24
##########                    Molecular_Weight:             332.399
##########                DOCK_Rotatable_Bonds:                   9
##########                       Formal_Charge:          0.00999983
##########                     HBond_Acceptors:                   6
##########                        HBond_Donors:                   1
##########                         Heavy_Atoms:                  24
##########                          Grid_Score:          -30.950619
##########                     Grid_vdw_energy:          -29.905294
##########                      Grid_es_energy:           -1.045323
##########           Internal_energy_repulsive:           26.269272

@<TRIPOS>MOLECULE
ZINC001371344729
 48 49 1 0 0
SMALL
USER_CHARGES


@<TRIPOS>ATOM
      1 C1        -10.6726   -3.6138   53.8942 C.3     1  ZINC001371344729   -0.1800
      2 C2        -11.4709   -2.7024   54.8284 C.3     1  ZINC001371344729    0.1000
      3 N3        -11.8025   -3.4308   56.0555 N.am    1  ZINC001371344729   -0.6100
      4 C4        -12.9300   -4.1666   56.1187 C.2     1  ZINC001371344729    0.5100
      5 O5        -13.2037   -4.7708   57.1340 O.2     1  ZINC001371344729   -0.5200
      6 C6        -13.8505   -4.2385   54.9277 C.3     1  ZINC001371344729   -0.0600
      7 C7        -14.8858   -3.1478   55.0264 C.2     1  ZINC001371344729   -0.0100
      8 C8        -15.3197   -2.3806   54.0103 C.2     1  ZINC001371344729   -0.1600
      9 C9        -14.8664   -2.4511   52.5747 C.3     1  ZINC001371344729   -0.0800
     10 C10       -16.2781   -1.4915   54.5485 C.2     1  ZINC001371344729   -0.2100
     11 C11       -16.3795   -1.7749   55.8596 C.2     1  ZINC001371344729   -0.0300
     12 O12       -15.5312   -2.7765   56.1441 O.3     1  ZINC001371344729   -0.1700
     13 C13       -10.9085   -3.3596   57.2139 C.3     1  ZINC001371344729    0.1200
     14 H14       -10.0940   -2.6669   57.0022 H       1  ZINC001371344729    0.1100
     15 C15       -10.3350   -4.7486   57.5016 C.3     1  ZINC001371344729   -0.1600
     16 C16       -11.6916   -2.8686   58.4331 C.3     1  ZINC001371344729    0.1100
     17 N17       -10.7587   -2.3485   59.4358 N.am    1  ZINC001371344729   -0.7200
     18 C18       -11.2294   -1.7544   60.5502 C.2     1  ZINC001371344729    0.5900
     19 O19       -12.4286   -1.6511   60.7239 O.2     1  ZINC001371344729   -0.5300
     20 C20       -10.2909   -1.2296   61.5580 C.2     1  ZINC001371344729   -0.2300
     21 C21        -8.9969   -1.6125   61.7583 C.2     1  ZINC001371344729    0.0200
     22 O22        -8.4951   -0.8923   62.7662 O.3     1  ZINC001371344729   -0.1700
     23 C23        -9.4146   -0.0445   63.2533 C.2     1  ZINC001371344729   -0.0100
     24 C24        -9.1998    0.9158   64.3946 C.3     1  ZINC001371344729   -0.0800
     25 C25       -10.5554   -0.1885   62.5619 C.2     1  ZINC001371344729   -0.1600
     26 H26       -11.2692   -4.4916   53.6457 H       1  ZINC001371344729    0.0700
     27 H27       -10.4259   -3.0719   52.9812 H       1  ZINC001371344729    0.0700
     28 H28        -9.7539   -3.9274   54.3900 H       1  ZINC001371344729    0.0600
     29 H29       -12.3896   -2.3889   54.3325 H       1  ZINC001371344729    0.0900
     30 H30       -10.8743   -1.8247   55.0769 H       1  ZINC001371344729    0.0800
     31 H31       -14.3460   -5.2092   54.9093 H       1  ZINC001371344729    0.1100
     32 H32       -13.2721   -4.1085   54.0130 H       1  ZINC001371344729    0.1200
     33 H33       -15.4976   -3.1520   52.0284 H       1  ZINC001371344729    0.0700
     34 H34       -14.9432   -1.4632   52.1206 H       1  ZINC001371344729    0.0700
     35 H35       -13.8309   -2.7891   52.5369 H       1  ZINC001371344729    0.0600
     36 H36       -16.8258   -0.7324   54.0099 H       1  ZINC001371344729    0.1500
     37 H37       -17.0288   -1.2775   56.5649 H       1  ZINC001371344729    0.2000
     38 H38        -9.7770   -5.0983   56.6330 H       1  ZINC001371344729    0.0700
     39 H39        -9.6698   -4.6956   58.3635 H       1  ZINC001371344729    0.0700
     40 H40       -11.1495   -5.4412   57.7133 H       1  ZINC001371344729    0.0700
     41 H41       -12.3774   -2.0774   58.1299 H       1  ZINC001371344729    0.0800
     42 H42       -12.2581   -3.6968   58.8587 H       1  ZINC001371344729    0.0800
     43 H43        -9.8022   -2.4319   59.2977 H       1  ZINC001371344729    0.4000
     44 H44        -8.4674   -2.3678   61.1965 H       1  ZINC001371344729    0.2100
     45 H45        -9.4598    0.4277   65.3340 H       1  ZINC001371344729    0.0800
     46 H46        -8.1537    1.2208   64.4209 H       1  ZINC001371344729    0.0800
     47 H47        -9.8307    1.7935   64.2545 H       1  ZINC001371344729    0.0900
     48 H48       -11.4792    0.3504   62.7119 H       1  ZINC001371344729    0.1600
@<TRIPOS>BOND
     1     1     2    1
     2     1    26    1
     3     1    27    1
     4     1    28    1
     5     2     3    1
     6     2    29    1
     7     2    30    1
     8     3     4   am
     9     3    13    1
    10     4     5    2
    11     4     6    1
    12     6     7    1
    13     6    31    1
    14     6    32    1
    15     7    12    1
    16     7     8    2
    17     8     9    1
    18     8    10    1
    19     9    33    1
    20     9    34    1
    21     9    35    1
    22    10    11    2
    23    10    36    1
    24    11    12    1
    25    11    37    1
    26    13    14    1
    27    13    15    1
    28    13    16    1
    29    15    38    1
    30    15    39    1
    31    15    40    1
    32    16    17    1
    33    16    41    1
    34    16    42    1
    35    17    18   am
    36    17    43    1
    37    18    19    2
    38    18    20    1
    39    20    25    1
    40    20    21    2
    41    21    22    1
    42    21    44    1
    43    22    23    1
    44    23    24    1
    45    23    25    2
    46    24    45    1
    47    24    46    1
    48    24    47    1
    49    25    48    1
@<TRIPOS>SUBSTRUCTURE
     1 ZINC001371344729        1 TEMP              0 ****  ****    0 ROOT


##########                                Name:    ZINC001015955459
##########                DOCK_Rotatable_Bonds:                   6
##########                         Heavy_Atoms:                  24
##########                    Molecular_Weight:             347.844
##########                DOCK_Rotatable_Bonds:                   6
##########                       Formal_Charge:          -0.0200002
##########                     HBond_Acceptors:                   6
##########                        HBond_Donors:                   1
##########                         Heavy_Atoms:                  24
##########                          Grid_Score:          -30.943089
##########                     Grid_vdw_energy:          -31.618208
##########                      Grid_es_energy:            0.675119
##########           Internal_energy_repulsive:           12.144291

@<TRIPOS>MOLECULE
ZINC001015955459
 46 48 1 0 0
SMALL
USER_CHARGES


@<TRIPOS>ATOM
      1 C1         -7.0155    2.6988   52.7714 C.3     1  ZINC001015955459   -0.1500
      2 C2         -8.3232    1.9081   52.6970 C.3     1  ZINC001015955459   -0.0300
      3 C3         -9.2898    2.6098   51.7408 C.3     1  ZINC001015955459   -0.1500
      4 C4         -8.0406    0.5161   52.1936 C.2     1  ZINC001015955459    0.0600
      5 C5         -8.7423   -0.6112   52.4920 C.2     1  ZINC001015955459   -0.0800
      6 C6         -9.9231   -0.7011   53.3699 C.2     1  ZINC001015955459    0.6100
      7 O7        -10.3554    0.2981   53.9120 O.2     1  ZINC001015955459   -0.5300
      8 N8        -10.5237   -1.8906   53.5718 N.am    1  ZINC001015955459   -0.7100
      9 C9        -11.6982   -1.9797   54.4428 C.3     1  ZINC001015955459    0.1400
     10 H10       -12.1440   -0.9943   54.5782 H       1  ZINC001015955459    0.1000
     11 C11       -12.7323   -2.9586   53.8494 C.3     1  ZINC001015955459   -0.1300
     12 C12       -12.8825   -4.0732   54.9069 C.3     1  ZINC001015955459    0.0200
     13 N13       -12.4696   -3.4359   56.1837 N.3     1  ZINC001015955459   -0.4900
     14 C14       -12.0811   -4.4475   57.1756 C.3     1  ZINC001015955459    0.0800
     15 C15       -11.3957   -3.7749   58.3370 C.ar    1  ZINC001015955459   -0.1100
     16 C16       -10.1097   -4.1417   58.6870 C.ar    1  ZINC001015955459   -0.1100
     17 C17        -9.4784   -3.5216   59.7495 C.ar    1  ZINC001015955459   -0.1000
     18 C18       -10.1368   -2.5423   60.4687 C.ar    1  ZINC001015955459   -0.1100
     19 C19       -11.4260   -2.1785   60.1221 C.ar    1  ZINC001015955459   -0.0300
     20 Cl20      -12.2539   -0.9488   61.0255 Cl      1  ZINC001015955459   -0.0700
     21 C21       -12.0551   -2.7954   59.0557 C.ar    1  ZINC001015955459   -0.1000
     22 C22       -11.3082   -2.5842   55.8088 C.3     1  ZINC001015955459    0.0100
     23 N23        -8.1453   -1.6405   51.8322 N.2     1  ZINC001015955459   -0.4600
     24 C24        -7.1389   -1.1694   51.1584 C.2     1  ZINC001015955459    0.1800
     25 O25        -7.0490    0.1521   51.3649 O.3     1  ZINC001015955459   -0.1900
     26 H26        -6.5681    2.7552   51.7791 H       1  ZINC001015955459    0.0600
     27 H27        -7.2200    3.7057   53.1356 H       1  ZINC001015955459    0.0700
     28 H28        -6.3270    2.1990   53.4527 H       1  ZINC001015955459    0.0600
     29 H29        -8.7708    1.8517   53.6893 H       1  ZINC001015955459    0.1300
     30 H30       -10.2215    2.0465   51.6878 H       1  ZINC001015955459    0.0600
     31 H31        -9.4943    3.6167   52.1050 H       1  ZINC001015955459    0.0700
     32 H32        -8.8424    2.6663   50.7486 H       1  ZINC001015955459    0.0600
     33 H33       -10.1782   -2.6878   53.1403 H       1  ZINC001015955459    0.4100
     34 H34       -13.6856   -2.4536   53.6935 H       1  ZINC001015955459    0.0800
     35 H35       -12.3660   -3.3728   52.9100 H       1  ZINC001015955459    0.0700
     36 H36       -13.9193   -4.4045   54.9654 H       1  ZINC001015955459    0.0900
     37 H37       -12.2273   -4.9117   54.6712 H       1  ZINC001015955459    0.0500
     38 H38       -12.9703   -4.9685   57.5306 H       1  ZINC001015955459    0.0900
     39 H39       -11.3994   -5.1635   56.7165 H       1  ZINC001015955459    0.0900
     40 H40        -9.5965   -4.9101   58.1280 H       1  ZINC001015955459    0.1300
     41 H41        -8.4723   -3.8057   60.0199 H       1  ZINC001015955459    0.1300
     42 H42        -9.6452   -2.0613   61.3014 H       1  ZINC001015955459    0.1300
     43 H43       -13.0617   -2.5122   58.7849 H       1  ZINC001015955459    0.1300
     44 H44       -10.4069   -3.1897   55.7132 H       1  ZINC001015955459    0.0700
     45 H45       -11.1603   -1.7945   56.5455 H       1  ZINC001015955459    0.0900
     46 H46        -6.4768   -1.7513   50.5346 H       1  ZINC001015955459    0.2600
@<TRIPOS>BOND
     1     1     2    1
     2     1    26    1
     3     1    27    1
     4     1    28    1
     5     2     3    1
     6     2     4    1
     7     2    29    1
     8     3    30    1
     9     3    31    1
    10     3    32    1
    11     4    25    1
    12     4     5    2
    13     5     6    1
    14     5    23    1
    15     6     7    2
    16     6     8   am
    17     8     9    1
    18     8    33    1
    19     9    10    1
    20     9    22    1
    21     9    11    1
    22    11    12    1
    23    11    34    1
    24    11    35    1
    25    12    13    1
    26    12    36    1
    27    12    37    1
    28    13    14    1
    29    13    22    1
    30    14    15    1
    31    14    38    1
    32    14    39    1
    33    15    21   ar
    34    15    16   ar
    35    16    17   ar
    36    16    40    1
    37    17    18   ar
    38    17    41    1
    39    18    19   ar
    40    18    42    1
    41    19    20    1
    42    19    21   ar
    43    21    43    1
    44    22    44    1
    45    22    45    1
    46    23    24    2
    47    24    25    1
    48    24    46    1
@<TRIPOS>SUBSTRUCTURE
     1 ZINC001015955459        1 TEMP              0 ****  ****    0 ROOT


##########                                Name:    ZINC001053792610
##########                DOCK_Rotatable_Bonds:                   5
##########                         Heavy_Atoms:                  25
##########                    Molecular_Weight:             347.374
##########                DOCK_Rotatable_Bonds:                   5
##########                       Formal_Charge:          -0.0400001
##########                     HBond_Acceptors:                   9
##########                        HBond_Donors:                   2
##########                         Heavy_Atoms:                  25
##########                          Grid_Score:          -30.913830
##########                     Grid_vdw_energy:          -30.023552
##########                      Grid_es_energy:           -0.890278
##########           Internal_energy_repulsive:            5.528085

@<TRIPOS>MOLECULE
ZINC001053792610
 46 49 1 0 0
SMALL
USER_CHARGES


@<TRIPOS>ATOM
      1 C1        -10.0020    1.5882   61.6015 C.3     1  ZINC001053792610   -0.1000
      2 C2         -9.9050    0.2326   60.9502 C.ar    1  ZINC001053792610    0.0800
      3 C3        -10.1480   -0.9099   61.6914 C.ar    1  ZINC001053792610    0.0600
      4 N4        -10.0629   -2.0987   61.1203 N.ar    1  ZINC001053792610   -0.4200
      5 C5         -9.7457   -2.1960   59.8414 C.ar    1  ZINC001053792610    0.0800
      6 C6         -9.6491   -3.5514   59.1901 C.3     1  ZINC001053792610    0.0700
      7 N7        -10.1654   -3.4729   57.8170 N.3     1  ZINC001053792610   -0.4500
      8 C8        -11.6200   -3.2210   57.8124 C.3     1  ZINC001053792610   -0.0100
      9 C9        -11.7325   -4.2445   56.6843 C.3     1  ZINC001053792610    0.0800
     10 C10       -10.4490   -4.8187   57.2806 C.3     1  ZINC001053792610   -0.0100
     11 C11       -12.9590   -5.1675   56.7579 C.3     1  ZINC001053792610   -0.1500
     12 C12       -13.8003   -4.6834   55.5434 C.3     1  ZINC001053792610    0.1100
     13 H13       -14.4132   -5.4912   55.1435 H       1  ZINC001053792610    0.1200
     14 N14       -14.6254   -3.5267   55.9006 N.am    1  ZINC001053792610   -0.7100
     15 C15       -15.6520   -3.1605   55.1078 C.2     1  ZINC001053792610    0.5000
     16 O16       -15.8936   -3.7895   54.0993 O.2     1  ZINC001053792610   -0.5100
     17 C17       -16.4995   -1.9697   55.4744 C.3     1  ZINC001053792610    0.0800
     18 H18       -16.2133   -1.1005   54.8823 H       1  ZINC001053792610    0.1300
     19 C19       -17.9945   -2.2887   55.2794 C.3     1  ZINC001053792610    0.0500
     20 O20       -18.5625   -2.1458   56.6136 O.3     1  ZINC001053792610   -0.3200
     21 C21       -17.5980   -1.8020   57.4745 C.2     1  ZINC001053792610    0.6500
     22 O22       -17.8006   -1.6188   58.6585 O.2     1  ZINC001053792610   -0.5100
     23 N23       -16.3851   -1.6766   56.9112 N.am    1  ZINC001053792610   -0.7100
     24 C24       -12.6815   -4.2857   54.5468 C.3     1  ZINC001053792610    0.0400
     25 O25       -11.6325   -3.7301   55.3601 O.3     1  ZINC001053792610   -0.3300
     26 C26        -9.5025   -1.0531   59.0999 C.ar    1  ZINC001053792610    0.0600
     27 N27        -9.5930    0.1356   59.6697 N.ar    1  ZINC001053792610   -0.4400
     28 H28       -11.0219    1.9621   61.5121 H       1  ZINC001053792610    0.0800
     29 H29        -9.7367    1.5047   62.6554 H       1  ZINC001053792610    0.0800
     30 H30        -9.3175    2.2782   61.1080 H       1  ZINC001053792610    0.0800
     31 H31       -10.4070   -0.8303   62.7368 H       1  ZINC001053792610    0.1700
     32 H32        -8.6071   -3.8708   59.1687 H       1  ZINC001053792610    0.1000
     33 H33       -10.2380   -4.2708   59.7590 H       1  ZINC001053792610    0.0600
     34 H34       -12.1177   -3.5305   58.7314 H       1  ZINC001053792610    0.0800
     35 H35       -11.8849   -2.2083   57.5087 H       1  ZINC001053792610    0.0900
     36 H36        -9.7302   -5.1479   56.5302 H       1  ZINC001053792610    0.1000
     37 H37       -10.6254   -5.5665   58.0537 H       1  ZINC001053792610    0.0800
     38 H38       -12.6684   -6.2113   56.6391 H       1  ZINC001053792610    0.1000
     39 H39       -13.5019   -5.0197   57.6914 H       1  ZINC001053792610    0.1000
     40 H40       -14.4329   -3.0244   56.7078 H       1  ZINC001053792610    0.4000
     41 H41       -18.4506   -1.5768   54.5916 H       1  ZINC001053792610    0.1200
     42 H42       -18.1234   -3.3085   54.9165 H       1  ZINC001053792610    0.1100
     43 H43       -15.5691   -1.4352   57.3769 H       1  ZINC001053792610    0.4400
     44 H44       -12.3207   -5.1647   54.0128 H       1  ZINC001053792610    0.0800
     45 H45       -13.0498   -3.5394   53.8429 H       1  ZINC001053792610    0.0900
     46 H46        -9.2433   -1.1325   58.0546 H       1  ZINC001053792610    0.1600
@<TRIPOS>BOND
     1     1     2    1
     2     1    28    1
     3     1    29    1
     4     1    30    1
     5     2    27   ar
     6     2     3   ar
     7     3     4   ar
     8     3    31    1
     9     4     5   ar
    10     5     6    1
    11     5    26   ar
    12     6     7    1
    13     6    32    1
    14     6    33    1
    15     7    10    1
    16     7     8    1
    17     8     9    1
    18     8    34    1
    19     8    35    1
    20     9    25    1
    21     9    10    1
    22     9    11    1
    23    10    36    1
    24    10    37    1
    25    11    12    1
    26    11    38    1
    27    11    39    1
    28    12    13    1
    29    12    14    1
    30    12    24    1
    31    14    15   am
    32    14    40    1
    33    15    16    2
    34    15    17    1
    35    17    18    1
    36    17    23    1
    37    17    19    1
    38    19    20    1
    39    19    41    1
    40    19    42    1
    41    20    21    1
    42    21    22    2
    43    21    23   am
    44    23    43    1
    45    24    25    1
    46    24    44    1
    47    24    45    1
    48    26    27   ar
    49    26    46    1
@<TRIPOS>SUBSTRUCTURE
     1 ZINC001053792610        1 TEMP              0 ****  ****    0 ROOT


##########                                Name:    ZINC000842947763
##########                DOCK_Rotatable_Bonds:                   7
##########                         Heavy_Atoms:                  24
##########                    Molecular_Weight:             365.373
##########                DOCK_Rotatable_Bonds:                   7
##########                       Formal_Charge:          0.00999997
##########                     HBond_Acceptors:                   9
##########                        HBond_Donors:                   0
##########                         Heavy_Atoms:                  24
##########                          Grid_Score:          -30.906078
##########                     Grid_vdw_energy:          -30.125566
##########                      Grid_es_energy:           -0.780513
##########           Internal_energy_repulsive:           32.233620

@<TRIPOS>MOLECULE
ZINC000842947763
 42 43 1 0 0
SMALL
USER_CHARGES


@<TRIPOS>ATOM
      1 C1        -14.5056   -2.9193   53.6199 C.3     1  ZINC000842947763   -0.1600
      2 C2        -13.3078   -3.8533   53.8032 C.3     1  ZINC000842947763   -0.1000
      3 H3        -13.0622   -4.3208   52.8497 H       1  ZINC000842947763    0.1000
      4 C4        -13.6570   -4.9357   54.8268 C.3     1  ZINC000842947763    0.0800
      5 O5        -14.4412   -4.3517   55.9001 O.3     1  ZINC000842947763   -0.3500
      6 C6        -14.0528   -4.6265   57.1610 C.2     1  ZINC000842947763    0.5200
      7 O7        -14.4713   -5.6193   57.7229 O.2     1  ZINC000842947763   -0.5100
      8 C8        -13.1208   -3.7226   57.8585 C.ar    1  ZINC000842947763   -0.1600
      9 C9        -13.5784   -2.5132   58.3911 C.ar    1  ZINC000842947763   -0.0200
     10 C10       -12.7045   -1.6754   59.0403 C.ar    1  ZINC000842947763   -0.1700
     11 C11       -11.3551   -2.0248   59.1724 C.ar    1  ZINC000842947763    0.2000
     12 C12       -10.9099   -3.2290   58.6396 C.ar    1  ZINC000842947763   -0.1500
     13 C13       -11.7738   -4.0706   57.9973 C.ar    1  ZINC000842947763   -0.0100
     14 C14        -9.4289   -3.3580   58.9201 C.3     1  ZINC000842947763   -0.0800
     15 C15        -9.0701   -2.0735   59.6849 C.3     1  ZINC000842947763    0.1100
     16 N16       -10.3245   -1.3235   59.7866 N.am    1  ZINC000842947763   -0.9400
     17 S17       -10.4904    0.1486   60.5265 S.o2    1  ZINC000842947763    2.6100
     18 C18        -9.9902   -0.1494   62.2445 C.3     1  ZINC000842947763   -0.6700
     19 O19        -9.5442    0.9801   59.8687 O.2     1  ZINC000842947763   -0.9300
     20 O20       -11.8827    0.4228   60.4530 O.2     1  ZINC000842947763   -0.9400
     21 C21       -12.1054   -3.0491   54.3016 C.3     1  ZINC000842947763   -0.1600
     22 C22       -11.4072   -2.3859   53.1126 C.3     1  ZINC000842947763    0.4600
     23 F23       -10.1875   -1.8436   53.5312 F       1  ZINC000842947763   -0.1800
     24 F24       -11.1758   -3.3402   52.1161 F       1  ZINC000842947763   -0.1800
     25 F25       -12.2200   -1.3676   52.6032 F       1  ZINC000842947763   -0.1800
     26 H26       -14.3102   -2.2359   52.7934 H       1  ZINC000842947763    0.0700
     27 H27       -15.3960   -3.5088   53.4013 H       1  ZINC000842947763    0.0700
     28 H28       -14.6639   -2.3475   54.5343 H       1  ZINC000842947763    0.0600
     29 H29       -14.2346   -5.7222   54.3412 H       1  ZINC000842947763    0.0800
     30 H30       -12.7393   -5.3585   55.2358 H       1  ZINC000842947763    0.0800
     31 H31       -14.6180   -2.2380   58.2918 H       1  ZINC000842947763    0.1500
     32 H32       -13.0603   -0.7419   59.4509 H       1  ZINC000842947763    0.1500
     33 H33       -11.4136   -5.0032   57.5887 H       1  ZINC000842947763    0.1400
     34 H34        -9.2334   -4.2354   59.5367 H       1  ZINC000842947763    0.1000
     35 H35        -8.8682   -3.4148   57.9871 H       1  ZINC000842947763    0.1000
     36 H36        -8.6939   -2.3176   60.6784 H       1  ZINC000842947763    0.1000
     37 H37        -8.3292   -1.4976   59.1302 H       1  ZINC000842947763    0.0900
     38 H38        -8.9589   -0.5021   62.2667 H       1  ZINC000842947763    0.1300
     39 H39       -10.0692    0.7779   62.8120 H       1  ZINC000842947763    0.1400
     40 H40       -10.6415   -0.9030   62.6871 H       1  ZINC000842947763    0.1300
     41 H41       -12.4447   -2.2819   54.9976 H       1  ZINC000842947763    0.1200
     42 H42       -11.4069   -3.7156   54.8075 H       1  ZINC000842947763    0.1100
@<TRIPOS>BOND
     1     1     2    1
     2     1    26    1
     3     1    27    1
     4     1    28    1
     5     2     3    1
     6     2     4    1
     7     2    21    1
     8     4     5    1
     9     4    29    1
    10     4    30    1
    11     5     6    1
    12     6     7    2
    13     6     8    1
    14     8    13   ar
    15     8     9   ar
    16     9    10   ar
    17     9    31    1
    18    10    11   ar
    19    10    32    1
    20    11    16    1
    21    11    12   ar
    22    12    13   ar
    23    12    14    1
    24    13    33    1
    25    14    15    1
    26    14    34    1
    27    14    35    1
    28    15    16    1
    29    15    36    1
    30    15    37    1
    31    16    17   am
    32    17    18    1
    33    17    19    2
    34    17    20    2
    35    18    38    1
    36    18    39    1
    37    18    40    1
    38    21    22    1
    39    21    41    1
    40    21    42    1
    41    22    23    1
    42    22    24    1
    43    22    25    1
@<TRIPOS>SUBSTRUCTURE
     1 ZINC000842947763        1 TEMP              0 ****  ****    0 ROOT


##########                                Name:    ZINC001053433946
##########                DOCK_Rotatable_Bonds:                   6
##########                         Heavy_Atoms:                  24
##########                    Molecular_Weight:             337.419
##########                DOCK_Rotatable_Bonds:                   6
##########                       Formal_Charge:               -0.02
##########                     HBond_Acceptors:                   7
##########                        HBond_Donors:                   2
##########                         Heavy_Atoms:                  24
##########                          Grid_Score:          -30.893534
##########                     Grid_vdw_energy:          -29.019255
##########                      Grid_es_energy:           -1.874279
##########           Internal_energy_repulsive:           15.758009

@<TRIPOS>MOLECULE
ZINC001053433946
 51 54 1 0 0
SMALL
USER_CHARGES


@<TRIPOS>ATOM
      1 N1         -9.6494   -0.1371   63.1425 N.am    1  ZINC001053433946   -0.8300
      2 C2        -10.8794    0.3872   62.9738 C.2     1  ZINC001053433946    0.5600
      3 O3        -11.8217   -0.0668   63.5877 O.2     1  ZINC001053433946   -0.5500
      4 C4        -11.0841    1.5378   62.0222 C.3     1  ZINC001053433946   -0.1600
      5 H5        -10.3518    2.3420   62.0924 H       1  ZINC001053433946    0.1400
      6 C6        -12.5245    1.9220   61.6777 C.3     1  ZINC001053433946   -0.1300
      7 C7        -11.6503    1.2170   60.6374 C.3     1  ZINC001053433946   -0.1700
      8 H8        -11.2909    1.8104   59.7968 H       1  ZINC001053433946    0.1400
      9 C9        -11.9616   -0.2249   60.3292 C.2     1  ZINC001053433946    0.5400
     10 O10       -13.0792   -0.6574   60.5158 O.2     1  ZINC001053433946   -0.5200
     11 N11       -10.9979   -1.0339   59.8461 N.am    1  ZINC001053433946   -0.6100
     12 C12        -9.6344   -0.5338   59.6110 C.3     1  ZINC001053433946    0.0700
     13 C13        -9.2243   -0.8795   58.1756 C.3     1  ZINC001053433946    0.0500
     14 O14        -9.3904   -2.2846   57.9607 O.3     1  ZINC001053433946   -0.3400
     15 C15       -10.7271   -2.7440   58.1411 C.3     1  ZINC001053433946    0.0800
     16 C16       -11.6793   -2.3358   57.0091 C.3     1  ZINC001053433946   -0.0100
     17 N17       -11.3093   -3.6206   56.3732 N.3     1  ZINC001053433946   -0.4700
     18 C18       -12.4906   -4.2901   55.8126 C.3     1  ZINC001053433946    0.0200
     19 C19       -12.6079   -3.9558   54.3242 C.3     1  ZINC001053433946   -0.1200
     20 H20       -13.0959   -4.7796   53.8032 H       1  ZINC001053433946    0.0800
     21 C21       -13.4352   -2.6784   54.1502 C.3     1  ZINC001053433946   -0.1200
     22 C22       -13.4802   -2.3110   52.6638 C.3     1  ZINC001053433946   -0.1600
     23 C23       -12.0498   -2.1524   52.1418 C.3     1  ZINC001053433946    0.0600
     24 O24       -11.3265   -3.3651   52.3622 O.3     1  ZINC001053433946   -0.3800
     25 C25       -11.2111   -3.7353   53.7377 C.3     1  ZINC001053433946    0.0700
     26 C26       -10.9497   -4.1937   57.6901 C.3     1  ZINC001053433946    0.0200
     27 C27       -11.2749   -2.4488   59.5425 C.3     1  ZINC001053433946    0.1000
     28 H28        -9.5180   -0.8784   63.7541 H       1  ZINC001053433946    0.4000
     29 H29        -8.8963    0.2242   62.6493 H       1  ZINC001053433946    0.4000
     30 H30       -13.3240    1.3427   62.1394 H       1  ZINC001053433946    0.1100
     31 H31       -12.7396    2.9790   61.5210 H       1  ZINC001053433946    0.1200
     32 H32        -9.6131    0.5476   59.7467 H       1  ZINC001053433946    0.1000
     33 H33        -8.9459   -1.0060   60.3118 H       1  ZINC001053433946    0.0800
     34 H34        -9.8513   -0.3278   57.4753 H       1  ZINC001053433946    0.0600
     35 H35        -8.1799   -0.6087   58.0205 H       1  ZINC001053433946    0.1100
     36 H36       -12.7248   -2.2807   57.3125 H       1  ZINC001053433946    0.0800
     37 H37       -11.3496   -1.4588   56.4521 H       1  ZINC001053433946    0.0900
     38 H38       -12.3898   -5.3685   55.9360 H       1  ZINC001053433946    0.0500
     39 H39       -13.3842   -3.9468   56.3338 H       1  ZINC001053433946    0.0800
     40 H40       -14.4484   -2.8477   54.5147 H       1  ZINC001053433946    0.0700
     41 H41       -12.9747   -1.8663   54.7128 H       1  ZINC001053433946    0.0700
     42 H42       -13.9852   -3.1013   52.1083 H       1  ZINC001053433946    0.0700
     43 H43       -14.0204   -1.3728   52.5367 H       1  ZINC001053433946    0.0700
     44 H44       -12.0747   -1.9328   51.0745 H       1  ZINC001053433946    0.0900
     45 H45       -11.5586   -1.3351   52.6699 H       1  ZINC001053433946    0.0500
     46 H46       -10.7091   -2.9392   54.2876 H       1  ZINC001053433946    0.0500
     47 H47       -10.6317   -4.6549   53.8192 H       1  ZINC001053433946    0.1000
     48 H48       -10.0400   -4.7938   57.6748 H       1  ZINC001053433946    0.1000
     49 H49       -11.7791   -4.6887   58.1954 H       1  ZINC001053433946    0.0900
     50 H50       -10.7836   -3.0916   60.2729 H       1  ZINC001053433946    0.0800
     51 H51       -12.3507   -2.6237   59.5618 H       1  ZINC001053433946    0.1000
@<TRIPOS>BOND
     1     1     2   am
     2     1    28    1
     3     1    29    1
     4     2     3    2
     5     2     4    1
     6     4     5    1
     7     4     7    1
     8     4     6    1
     9     6     7    1
    10     6    30    1
    11     6    31    1
    12     7     8    1
    13     7     9    1
    14     9    10    2
    15     9    11   am
    16    11    27    1
    17    11    12    1
    18    12    13    1
    19    12    32    1
    20    12    33    1
    21    13    14    1
    22    13    34    1
    23    13    35    1
    24    14    15    1
    25    15    26    1
    26    15    16    1
    27    15    27    1
    28    16    17    1
    29    16    36    1
    30    16    37    1
    31    17    18    1
    32    17    26    1
    33    18    19    1
    34    18    38    1
    35    18    39    1
    36    19    20    1
    37    19    25    1
    38    19    21    1
    39    21    22    1
    40    21    40    1
    41    21    41    1
    42    22    23    1
    43    22    42    1
    44    22    43    1
    45    23    24    1
    46    23    44    1
    47    23    45    1
    48    24    25    1
    49    25    46    1
    50    25    47    1
    51    26    48    1
    52    26    49    1
    53    27    50    1
    54    27    51    1
@<TRIPOS>SUBSTRUCTURE
     1 ZINC001053433946        1 TEMP              0 ****  ****    0 ROOT


##########                                Name:    ZINC000416583757
##########                DOCK_Rotatable_Bonds:                   7
##########                         Heavy_Atoms:                  20
##########                    Molecular_Weight:             380.693
##########                DOCK_Rotatable_Bonds:                   7
##########                       Formal_Charge:         1.04308e-07
##########                     HBond_Acceptors:                   7
##########                        HBond_Donors:                   1
##########                         Heavy_Atoms:                  20
##########                          Grid_Score:          -30.886372
##########                     Grid_vdw_energy:          -28.140949
##########                      Grid_es_energy:           -2.745422
##########           Internal_energy_repulsive:            9.707536

@<TRIPOS>MOLECULE
ZINC000416583757
 35 35 1 0 0
SMALL
USER_CHARGES


@<TRIPOS>ATOM
      1 C1         -3.9893    1.9068   65.2103 C.3     1  ZINC000416583757   -0.1500
      2 C2         -5.2785    1.7031   66.0085 C.3     1  ZINC000416583757   -0.0200
      3 H3         -5.3245    0.6752   66.3684 H       1  ZINC000416583757    0.1200
      4 C4         -5.2965    2.6258   67.1554 C.1     1  ZINC000416583757    0.2100
      5 N5         -5.3103    3.3378   68.0404 N.1     1  ZINC000416583757   -0.4200
      6 C6         -6.4846    1.9831   65.1097 C.3     1  ZINC000416583757    0.1300
      7 N7         -7.7190    1.7880   65.8743 N.am    1  ZINC000416583757   -1.0100
      8 C8         -8.3236    2.9146   66.5893 C.3     1  ZINC000416583757    0.0800
      9 S9         -8.4307    0.2938   65.9305 S.o2    1  ZINC000416583757    2.7800
     10 O10        -7.4255   -0.6135   66.3618 O.2     1  ZINC000416583757   -0.9700
     11 O11        -9.6674    0.4637   66.6093 O.2     1  ZINC000416583757   -0.9700
     12 N12        -8.8059   -0.1294   64.3740 N.am    1  ZINC000416583757   -1.1300
     13 C13        -9.7164    0.7059   63.5870 C.3     1  ZINC000416583757    0.1600
     14 C14        -9.5341    0.4051   62.1217 C.ar    1  ZINC000416583757   -0.0800
     15 C15        -9.5306    1.4352   61.2003 C.ar    1  ZINC000416583757   -0.0800
     16 C16        -9.3627    1.1595   59.8547 C.ar    1  ZINC000416583757   -0.0300
     17 Cl17       -9.3577    2.4535   58.6975 Cl      1  ZINC000416583757   -0.0500
     18 C18        -9.1985   -0.1471   59.4321 C.ar    1  ZINC000416583757   -0.0700
     19 C19        -9.2021   -1.1776   60.3547 C.ar    1  ZINC000416583757   -0.0800
     20 Br20       -8.9776   -2.9644   59.7777 Br      1  ZINC000416583757   -0.0300
     21 C21        -9.3647   -0.9005   61.7001 C.ar    1  ZINC000416583757   -0.0700
     22 H22        -3.1319    1.8270   65.8784 H       1  ZINC000416583757    0.0700
     23 H23        -3.9179    1.1443   64.4347 H       1  ZINC000416583757    0.0800
     24 H24        -3.9998    2.8943   64.7490 H       1  ZINC000416583757    0.0700
     25 H25        -6.4388    3.0110   64.7499 H       1  ZINC000416583757    0.0900
     26 H26        -6.4713    1.2999   64.2606 H       1  ZINC000416583757    0.1000
     27 H27        -9.0270    3.4264   65.9325 H       1  ZINC000416583757    0.0700
     28 H28        -8.8505    2.5459   67.4693 H       1  ZINC000416583757    0.0800
     29 H29        -7.5431    3.6100   66.8981 H       1  ZINC000416583757    0.0800
     30 H30        -8.4227   -0.9303   63.9834 H       1  ZINC000416583757    0.4200
     31 H31       -10.7457    0.4935   63.8762 H       1  ZINC000416583757    0.0800
     32 H32        -9.4966    1.7573   63.7722 H       1  ZINC000416583757    0.1000
     33 H33        -9.6592    2.4554   61.5306 H       1  ZINC000416583757    0.1500
     34 H34        -9.0678   -0.3629   58.3819 H       1  ZINC000416583757    0.1500
     35 H35        -9.3676   -1.7052   62.4205 H       1  ZINC000416583757    0.1400
@<TRIPOS>BOND
     1     1     2    1
     2     1    22    1
     3     1    23    1
     4     1    24    1
     5     2     3    1
     6     2     4    1
     7     2     6    1
     8     4     5    3
     9     6     7    1
    10     6    25    1
    11     6    26    1
    12     7     8    1
    13     7     9   am
    14     8    27    1
    15     8    28    1
    16     8    29    1
    17     9    10    2
    18     9    11    2
    19     9    12   am
    20    12    13    1
    21    12    30    1
    22    13    14    1
    23    13    31    1
    24    13    32    1
    25    14    21   ar
    26    14    15   ar
    27    15    16   ar
    28    15    33    1
    29    16    17    1
    30    16    18   ar
    31    18    19   ar
    32    18    34    1
    33    19    20    1
    34    19    21   ar
    35    21    35    1
@<TRIPOS>SUBSTRUCTURE
     1 ZINC000416583757        1 TEMP              0 ****  ****    0 ROOT


##########                                Name:    ZINC000546115054
##########                DOCK_Rotatable_Bonds:                  10
##########                         Heavy_Atoms:                  26
##########                    Molecular_Weight:             363.457
##########                DOCK_Rotatable_Bonds:                  10
##########                       Formal_Charge:        -4.39584e-07
##########                     HBond_Acceptors:                   7
##########                        HBond_Donors:                   2
##########                         Heavy_Atoms:                  26
##########                          Grid_Score:          -30.863684
##########                     Grid_vdw_energy:          -30.169497
##########                      Grid_es_energy:           -0.694187
##########           Internal_energy_repulsive:           37.636940

@<TRIPOS>MOLECULE
ZINC000546115054
 55 56 1 0 0
SMALL
USER_CHARGES


@<TRIPOS>ATOM
      1 C1        -11.6381   -2.1584   51.9915 C.3     1  ZINC000546115054   -0.1500
      2 C2        -10.9611   -2.8619   53.1696 C.3     1  ZINC000546115054    0.0600
      3 O3        -11.7154   -2.6287   54.3608 O.3     1  ZINC000546115054   -0.3700
      4 C4        -12.1569   -3.8216   55.0120 C.3     1  ZINC000546115054    0.0500
      5 H5        -11.3322   -4.5320   55.0689 H       1  ZINC000546115054    0.0700
      6 C6        -13.3112   -4.4402   54.2190 C.3     1  ZINC000546115054    0.0400
      7 O7        -13.7889   -5.6006   54.9026 O.3     1  ZINC000546115054   -0.3700
      8 C8        -14.2989   -5.3381   56.2115 C.3     1  ZINC000546115054    0.0600
      9 C9        -13.1844   -4.7555   57.0845 C.3     1  ZINC000546115054   -0.1600
     10 C10       -12.6404   -3.4840   56.4257 C.3     1  ZINC000546115054    0.1700
     11 H11       -13.4307   -2.7354   56.3702 H       1  ZINC000546115054    0.1000
     12 N12       -11.5243   -2.9609   57.2175 N.am    1  ZINC000546115054   -0.7300
     13 C13       -11.7439   -2.0056   58.1425 C.2     1  ZINC000546115054    0.7200
     14 O14       -12.8679   -1.5770   58.3189 O.2     1  ZINC000546115054   -0.5900
     15 N15       -10.7173   -1.5254   58.8721 N.am    1  ZINC000546115054   -0.7200
     16 C16       -10.9557   -0.4858   59.8764 C.3     1  ZINC000546115054    0.1600
     17 H17       -11.9747   -0.5718   60.2535 H       1  ZINC000546115054    0.1200
     18 C18        -9.9679   -0.6572   61.0322 C.3     1  ZINC000546115054   -0.1000
     19 C19       -10.4958    0.0508   62.2532 C.ar    1  ZINC000546115054   -0.0800
     20 C20        -9.6727    0.8992   62.9702 C.ar    1  ZINC000546115054   -0.1100
     21 C21       -10.1570    1.5486   64.0902 C.ar    1  ZINC000546115054   -0.1200
     22 C22       -11.4642    1.3500   64.4933 C.ar    1  ZINC000546115054   -0.1200
     23 C23       -12.2875    0.5024   63.7759 C.ar    1  ZINC000546115054   -0.1200
     24 C24       -11.8047   -0.1437   62.6533 C.ar    1  ZINC000546115054   -0.1100
     25 C25       -10.7648    0.8713   59.2496 C.2     1  ZINC000546115054    0.5000
     26 O26       -11.5489    1.7652   59.4884 O.2     1  ZINC000546115054   -0.5200
     27 N27        -9.7227    1.0917   58.4237 N.am    1  ZINC000546115054   -0.6200
     28 C28        -9.5382    2.4104   57.8130 C.3     1  ZINC000546115054    0.0800
     29 C29        -8.7747    0.0124   58.1368 C.3     1  ZINC000546115054    0.0700
     30 H30       -11.0627   -2.3362   51.0829 H       1  ZINC000546115054    0.0700
     31 H31       -12.6471   -2.5507   51.8652 H       1  ZINC000546115054    0.0600
     32 H32       -11.6865   -1.0872   52.1870 H       1  ZINC000546115054    0.0600
     33 H33       -10.9127   -3.9331   52.9740 H       1  ZINC000546115054    0.0500
     34 H34        -9.9521   -2.4696   53.2959 H       1  ZINC000546115054    0.0500
     35 H35       -14.1190   -3.7143   54.1267 H       1  ZINC000546115054    0.0600
     36 H36       -12.9602   -4.7219   53.2262 H       1  ZINC000546115054    0.1000
     37 H37       -15.1197   -4.6238   56.1453 H       1  ZINC000546115054    0.0600
     38 H38       -14.6596   -6.2665   56.6541 H       1  ZINC000546115054    0.1000
     39 H39       -13.5824   -4.5135   58.0699 H       1  ZINC000546115054    0.0900
     40 H40       -12.3809   -5.4853   57.1843 H       1  ZINC000546115054    0.0800
     41 H41       -10.6274   -3.3019   57.0759 H       1  ZINC000546115054    0.3900
     42 H42        -9.8208   -1.8682   58.7322 H       1  ZINC000546115054    0.4000
     43 H43        -9.8460   -1.7179   61.2515 H       1  ZINC000546115054    0.0900
     44 H44        -9.0045   -0.2308   60.7530 H       1  ZINC000546115054    0.1100
     45 H45        -8.6514    1.0543   62.6552 H       1  ZINC000546115054    0.1200
     46 H46        -9.5138    2.2109   64.6507 H       1  ZINC000546115054    0.1200
     47 H47       -11.8423    1.8569   65.3688 H       1  ZINC000546115054    0.1200
     48 H48       -13.3088    0.3471   64.0910 H       1  ZINC000546115054    0.1200
     49 H49       -12.4479   -0.8060   62.0928 H       1  ZINC000546115054    0.1200
     50 H50        -8.9187    3.0284   58.4630 H       1  ZINC000546115054    0.0600
     51 H51        -9.0495    2.2975   56.8452 H       1  ZINC000546115054    0.0700
     52 H52       -10.5091    2.8866   57.6764 H       1  ZINC000546115054    0.0800
     53 H53        -9.1132   -0.5463   57.2641 H       1  ZINC000546115054    0.0600
     54 H54        -7.7906    0.4366   57.9373 H       1  ZINC000546115054    0.0800
     55 H55        -8.7146   -0.6564   58.9953 H       1  ZINC000546115054    0.0700
@<TRIPOS>BOND
     1     1     2    1
     2     1    30    1
     3     1    31    1
     4     1    32    1
     5     2     3    1
     6     2    33    1
     7     2    34    1
     8     3     4    1
     9     4     5    1
    10     4    10    1
    11     4     6    1
    12     6     7    1
    13     6    35    1
    14     6    36    1
    15     7     8    1
    16     8     9    1
    17     8    37    1
    18     8    38    1
    19     9    10    1
    20     9    39    1
    21     9    40    1
    22    10    11    1
    23    10    12    1
    24    12    13   am
    25    12    41    1
    26    13    14    2
    27    13    15   am
    28    15    16    1
    29    15    42    1
    30    16    17    1
    31    16    18    1
    32    16    25    1
    33    18    19    1
    34    18    43    1
    35    18    44    1
    36    19    24   ar
    37    19    20   ar
    38    20    21   ar
    39    20    45    1
    40    21    22   ar
    41    21    46    1
    42    22    23   ar
    43    22    47    1
    44    23    24   ar
    45    23    48    1
    46    24    49    1
    47    25    26    2
    48    25    27   am
    49    27    28    1
    50    27    29    1
    51    28    50    1
    52    28    51    1
    53    28    52    1
    54    29    53    1
    55    29    54    1
    56    29    55    1
@<TRIPOS>SUBSTRUCTURE
     1 ZINC000546115054        1 TEMP              0 ****  ****    0 ROOT


##########                                Name:    ZINC000496437542
##########                DOCK_Rotatable_Bonds:                   7
##########                         Heavy_Atoms:                  24
##########                    Molecular_Weight:             338.447
##########                DOCK_Rotatable_Bonds:                   7
##########                       Formal_Charge:           0.0400002
##########                     HBond_Acceptors:                   6
##########                        HBond_Donors:                   1
##########                         Heavy_Atoms:                  24
##########                          Grid_Score:          -30.860792
##########                     Grid_vdw_energy:          -30.175369
##########                      Grid_es_energy:           -0.685423
##########           Internal_energy_repulsive:           16.373791

@<TRIPOS>MOLECULE
ZINC000496437542
 54 55 1 0 0
SMALL
USER_CHARGES


@<TRIPOS>ATOM
      1 C1        -14.9469    0.5319   51.1869 C.3     1  ZINC000496437542   -0.1800
      2 C2        -13.9613   -0.6305   51.3228 C.3     1  ZINC000496437542    0.1400
      3 C3        -13.5886   -1.1484   49.9323 C.3     1  ZINC000496437542   -0.1800
      4 C4        -12.7001   -0.1482   52.0424 C.3     1  ZINC000496437542   -0.1400
      5 O5        -14.5766   -1.6997   52.0886 O.3     1  ZINC000496437542   -0.3600
      6 C6        -13.7578   -2.4719   52.8275 C.2     1  ZINC000496437542    0.6600
      7 O7        -12.9081   -3.1498   52.2843 O.2     1  ZINC000496437542   -0.5600
      8 N8        -13.8805   -2.4931   54.1694 N.am    1  ZINC000496437542   -0.6000
      9 C9        -14.9019   -1.6809   54.8495 C.3     1  ZINC000496437542    0.0800
     10 C10       -15.6803   -2.5877   55.8097 C.3     1  ZINC000496437542    0.0500
     11 O11       -14.7580   -3.2834   56.6519 O.3     1  ZINC000496437542   -0.3700
     12 C12       -13.8688   -4.1560   55.9507 C.3     1  ZINC000496437542    0.0700
     13 H13       -14.4468   -4.8818   55.3785 H       1  ZINC000496437542    0.0700
     14 C14       -12.9765   -4.8899   56.9537 C.3     1  ZINC000496437542    0.1300
     15 N15       -12.1511   -3.9183   57.6754 N.am    1  ZINC000496437542   -0.7200
     16 C16       -10.8081   -4.0296   57.6572 C.2     1  ZINC000496437542    0.5600
     17 O17       -10.2813   -4.9360   57.0407 O.2     1  ZINC000496437542   -0.5400
     18 C18        -9.9793   -3.0551   58.3833 C.2     1  ZINC000496437542   -0.1900
     19 C19        -9.7935   -1.8524   57.8838 C.2     1  ZINC000496437542   -0.0600
     20 C20        -8.9420   -0.8416   58.6225 C.3     1  ZINC000496437542   -0.1000
     21 C21        -9.7076   -0.3720   59.8616 C.3     1  ZINC000496437542   -0.1100
     22 C22        -9.4749   -1.3143   61.0284 C.3     1  ZINC000496437542   -0.1200
     23 C23       -10.0674   -2.6972   60.8279 C.3     1  ZINC000496437542   -0.1200
     24 C24        -9.3488   -3.4387   59.7054 C.3     1  ZINC000496437542   -0.0800
     25 C25       -13.0014   -3.3339   54.9974 C.3     1  ZINC000496437542    0.1000
     26 H26       -15.8453    0.1884   50.6742 H       1  ZINC000496437542    0.0900
     27 H27       -15.2123    0.9009   52.1775 H       1  ZINC000496437542    0.0600
     28 H28       -14.4849    1.3346   50.6120 H       1  ZINC000496437542    0.0700
     29 H29       -13.1266   -0.3458   49.3574 H       1  ZINC000496437542    0.0700
     30 H30       -12.8863   -1.9764   50.0291 H       1  ZINC000496437542    0.0600
     31 H31       -14.4870   -1.4919   49.4196 H       1  ZINC000496437542    0.0900
     32 H32       -12.9657    0.2207   53.0331 H       1  ZINC000496437542    0.0700
     33 H33       -11.9980   -0.9764   52.1393 H       1  ZINC000496437542    0.0700
     34 H34       -12.2382    0.6544   51.4675 H       1  ZINC000496437542    0.0800
     35 H35       -14.4203   -0.8798   55.4103 H       1  ZINC000496437542    0.0800
     36 H36       -15.5833   -1.2556   54.1127 H       1  ZINC000496437542    0.1000
     37 H37       -16.3472   -1.9815   56.4228 H       1  ZINC000496437542    0.1100
     38 H38       -16.2649   -3.3077   55.2371 H       1  ZINC000496437542    0.0600
     39 H39       -13.5993   -5.4354   57.6629 H       1  ZINC000496437542    0.0900
     40 H40       -12.3323   -5.5905   56.4224 H       1  ZINC000496437542    0.0800
     41 H41       -12.5711   -3.1947   58.1661 H       1  ZINC000496437542    0.4000
     42 H42       -10.2502   -1.5848   56.9423 H       1  ZINC000496437542    0.1300
     43 H43        -8.0036   -1.3058   58.9261 H       1  ZINC000496437542    0.0800
     44 H44        -8.7387    0.0100   57.9733 H       1  ZINC000496437542    0.0800
     45 H45        -9.3692    0.6274   60.1348 H       1  ZINC000496437542    0.0700
     46 H46       -10.7730   -0.3395   59.6339 H       1  ZINC000496437542    0.0700
     47 H47        -8.4009   -1.4154   61.1850 H       1  ZINC000496437542    0.0600
     48 H48        -9.9139   -0.8743   61.9238 H       1  ZINC000496437542    0.0600
     49 H49        -9.9717   -3.2660   61.7528 H       1  ZINC000496437542    0.0700
     50 H50       -11.1230   -2.6017   60.5740 H       1  ZINC000496437542    0.0600
     51 H51        -9.4442   -4.5139   59.8573 H       1  ZINC000496437542    0.0700
     52 H52        -8.2952   -3.1594   59.6980 H       1  ZINC000496437542    0.0800
     53 H53       -12.4224   -4.0018   54.3595 H       1  ZINC000496437542    0.1100
     54 H54       -12.3274   -2.6974   55.5708 H       1  ZINC000496437542    0.0900
@<TRIPOS>BOND
     1     1     2    1
     2     1    26    1
     3     1    27    1
     4     1    28    1
     5     2     3    1
     6     2     4    1
     7     2     5    1
     8     3    29    1
     9     3    30    1
    10     3    31    1
    11     4    32    1
    12     4    33    1
    13     4    34    1
    14     5     6    1
    15     6     7    2
    16     6     8   am
    17     8    25    1
    18     8     9    1
    19     9    10    1
    20     9    35    1
    21     9    36    1
    22    10    11    1
    23    10    37    1
    24    10    38    1
    25    11    12    1
    26    12    13    1
    27    12    14    1
    28    12    25    1
    29    14    15    1
    30    14    39    1
    31    14    40    1
    32    15    16   am
    33    15    41    1
    34    16    17    2
    35    16    18    1
    36    18    24    1
    37    18    19    2
    38    19    20    1
    39    19    42    1
    40    20    21    1
    41    20    43    1
    42    20    44    1
    43    21    22    1
    44    21    45    1
    45    21    46    1
    46    22    23    1
    47    22    47    1
    48    22    48    1
    49    23    24    1
    50    23    49    1
    51    23    50    1
    52    24    51    1
    53    24    52    1
    54    25    53    1
    55    25    54    1
@<TRIPOS>SUBSTRUCTURE
     1 ZINC000496437542        1 TEMP              0 ****  ****    0 ROOT


##########                                Name:    ZINC000337709254
##########                DOCK_Rotatable_Bonds:                   7
##########                         Heavy_Atoms:                  22
##########                    Molecular_Weight:              329.42
##########                DOCK_Rotatable_Bonds:                   7
##########                       Formal_Charge:           0.0300004
##########                     HBond_Acceptors:                   8
##########                        HBond_Donors:                   2
##########                         Heavy_Atoms:                  22
##########                          Grid_Score:          -30.859451
##########                     Grid_vdw_energy:          -28.800861
##########                      Grid_es_energy:           -2.058590
##########           Internal_energy_repulsive:           12.083366

@<TRIPOS>MOLECULE
ZINC000337709254
 45 46 1 0 0
SMALL
USER_CHARGES


@<TRIPOS>ATOM
      1 C1        -17.7694   -2.3894   57.5181 C.3     1  ZINC000337709254   -0.6700
      2 S2        -16.0361   -1.9855   57.8693 S.o2    1  ZINC000337709254    2.6100
      3 O3        -15.5985   -0.9111   57.0486 O.2     1  ZINC000337709254   -0.9500
      4 O4        -15.7993   -1.9809   59.2704 O.2     1  ZINC000337709254   -0.9500
      5 N5        -15.1865   -3.2946   57.3158 N.am    1  ZINC000337709254   -1.1200
      6 C6        -13.7265   -3.3235   57.4339 C.3     1  ZINC000337709254    0.1200
      7 C7        -13.1185   -3.8244   56.1222 C.3     1  ZINC000337709254   -0.1100
      8 H8        -13.4401   -4.8460   55.9194 H       1  ZINC000337709254    0.1100
      9 C9        -13.5112   -2.8899   54.9510 C.3     1  ZINC000337709254   -0.1200
     10 C10       -12.3889   -3.1496   53.9156 C.3     1  ZINC000337709254   -0.1200
     11 C11       -11.1151   -3.3110   54.7708 C.3     1  ZINC000337709254   -0.1400
     12 C12       -11.5789   -3.7434   56.1751 C.3     1  ZINC000337709254    0.1500
     13 H13       -11.1585   -4.7179   56.4236 H       1  ZINC000337709254    0.1000
     14 N14       -11.1637   -2.7501   57.1686 N.am    1  ZINC000337709254   -0.7200
     15 C15       -10.5277   -3.1435   58.2898 C.2     1  ZINC000337709254    0.5300
     16 O16       -10.2977   -4.3198   58.4756 O.2     1  ZINC000337709254   -0.5100
     17 C17       -10.1022   -2.1219   59.3127 C.3     1  ZINC000337709254    0.0200
     18 C18        -9.2852   -1.0846   58.6623 C.1     1  ZINC000337709254    0.2000
     19 N19        -8.6545   -0.2840   58.1603 N.1     1  ZINC000337709254   -0.3900
     20 C20       -11.3423   -1.4800   59.9423 C.3     1  ZINC000337709254   -0.1500
     21 C21       -10.9022   -0.5016   61.0345 C.3     1  ZINC000337709254    0.0600
     22 O22       -10.1183   -1.1962   62.0067 O.3     1  ZINC000337709254   -0.3700
     23 C23        -8.9216   -1.7770   61.4846 C.3     1  ZINC000337709254    0.0600
     24 C24        -9.2822   -2.8066   60.4104 C.3     1  ZINC000337709254   -0.1300
     25 H25       -17.8986   -2.5345   56.4456 H       1  ZINC000337709254    0.1300
     26 H26       -18.0430   -3.3041   58.0441 H       1  ZINC000337709254    0.1300
     27 H27       -18.4081   -1.5724   57.8538 H       1  ZINC000337709254    0.1300
     28 H28       -15.6553   -4.0424   56.9134 H       1  ZINC000337709254    0.4200
     29 H29       -13.3590   -2.3192   57.6444 H       1  ZINC000337709254    0.0600
     30 H30       -13.4408   -3.9925   58.2456 H       1  ZINC000337709254    0.0900
     31 H31       -14.4837   -3.1677   54.5446 H       1  ZINC000337709254    0.0800
     32 H32       -13.5083   -1.8478   55.2707 H       1  ZINC000337709254    0.0700
     33 H33       -12.5905   -4.0626   53.3554 H       1  ZINC000337709254    0.0700
     34 H34       -12.2895   -2.3003   53.2396 H       1  ZINC000337709254    0.0700
     35 H35       -10.4708   -4.0774   54.3400 H       1  ZINC000337709254    0.0800
     36 H36       -10.5811   -2.3626   54.8279 H       1  ZINC000337709254    0.0700
     37 H37       -11.3466   -1.8092   57.0195 H       1  ZINC000337709254    0.4000
     38 H38       -11.9030   -0.9433   59.1770 H       1  ZINC000337709254    0.0900
     39 H39       -11.9714   -2.2552   60.3797 H       1  ZINC000337709254    0.1100
     40 H40       -10.3067    0.2957   60.5898 H       1  ZINC000337709254    0.0500
     41 H41       -11.7818   -0.0736   61.5152 H       1  ZINC000337709254    0.1100
     42 H42        -8.3002   -0.9963   61.0457 H       1  ZINC000337709254    0.0500
     43 H43        -8.3745   -2.2678   62.2894 H       1  ZINC000337709254    0.1100
     44 H44        -9.8697   -3.6086   60.8573 H       1  ZINC000337709254    0.1100
     45 H45        -8.3696   -3.2187   59.9799 H       1  ZINC000337709254    0.0900
@<TRIPOS>BOND
     1     1     2    1
     2     1    25    1
     3     1    26    1
     4     1    27    1
     5     2     3    2
     6     2     4    2
     7     2     5   am
     8     5     6    1
     9     5    28    1
    10     6     7    1
    11     6    29    1
    12     6    30    1
    13     7     8    1
    14     7    12    1
    15     7     9    1
    16     9    10    1
    17     9    31    1
    18     9    32    1
    19    10    11    1
    20    10    33    1
    21    10    34    1
    22    11    12    1
    23    11    35    1
    24    11    36    1
    25    12    13    1
    26    12    14    1
    27    14    15   am
    28    14    37    1
    29    15    16    2
    30    15    17    1
    31    17    24    1
    32    17    18    1
    33    17    20    1
    34    18    19    3
    35    20    21    1
    36    20    38    1
    37    20    39    1
    38    21    22    1
    39    21    40    1
    40    21    41    1
    41    22    23    1
    42    23    24    1
    43    23    42    1
    44    23    43    1
    45    24    44    1
    46    24    45    1
@<TRIPOS>SUBSTRUCTURE
     1 ZINC000337709254        1 TEMP              0 ****  ****    0 ROOT


##########                                Name:    ZINC000676564986
##########                DOCK_Rotatable_Bonds:                   5
##########                         Heavy_Atoms:                  25
##########                    Molecular_Weight:             347.444
##########                DOCK_Rotatable_Bonds:                   5
##########                       Formal_Charge:          -0.0100005
##########                     HBond_Acceptors:                   6
##########                        HBond_Donors:                   1
##########                         Heavy_Atoms:                  25
##########                          Grid_Score:          -30.852701
##########                     Grid_vdw_energy:          -29.578064
##########                      Grid_es_energy:           -1.274638
##########           Internal_energy_repulsive:            6.193128

@<TRIPOS>MOLECULE
ZINC000676564986
 42 45 1 0 0
SMALL
USER_CHARGES


@<TRIPOS>ATOM
      1 C1         -8.7971   -2.1976   60.5672 C.3     1  ZINC000676564986    0.0800
      2 N2        -10.0959   -2.2918   59.8961 N.pl3   1  ZINC000676564986   -0.4800
      3 C3        -11.1205   -1.3978   59.9926 C.2     1  ZINC000676564986    0.2500
      4 N4        -12.1250   -1.7926   59.2655 N.2     1  ZINC000676564986   -0.4600
      5 C5        -11.8099   -2.9617   58.6579 C.ar    1  ZINC000676564986   -0.1100
      6 C6        -12.4799   -3.8318   57.7813 C.ar    1  ZINC000676564986    0.5100
      7 N7        -13.7671   -3.5546   57.3552 N.pl3   1  ZINC000676564986   -0.6900
      8 C8        -14.0233   -2.3852   56.5108 C.3     1  ZINC000676564986    0.1700
      9 C9        -12.9427   -2.2734   55.4663 C.ar    1  ZINC000676564986   -0.0800
     10 C10       -11.8677   -1.4284   55.6735 C.ar    1  ZINC000676564986   -0.1100
     11 C11       -10.8758   -1.3234   54.7187 C.ar    1  ZINC000676564986   -0.0700
     12 C12       -10.9587   -2.0681   53.5483 C.ar    1  ZINC000676564986   -0.1300
     13 S13        -9.6951   -1.9378   52.3273 S.3     1  ZINC000676564986   -0.0100
     14 C14        -9.2545   -0.2330   52.3931 C.ar    1  ZINC000676564986   -0.1000
     15 C15        -7.9190    0.1377   52.4950 C.ar    1  ZINC000676564986   -0.1200
     16 C16        -7.5775    1.4746   52.5458 C.ar    1  ZINC000676564986   -0.1000
     17 C17        -8.5624    2.4442   52.4953 C.ar    1  ZINC000676564986   -0.1200
     18 C18        -9.8925    2.0789   52.3939 C.ar    1  ZINC000676564986   -0.1000
     19 C19       -10.2411    0.7440   52.3373 C.ar    1  ZINC000676564986   -0.1000
     20 C20       -12.0404   -2.9162   53.3434 C.ar    1  ZINC000676564986   -0.0700
     21 C21       -13.0257   -3.0203   54.3051 C.ar    1  ZINC000676564986   -0.1100
     22 N22       -11.8487   -4.9269   57.3707 N.ar    1  ZINC000676564986   -0.5900
     23 C23       -10.6204   -5.1992   57.7716 C.ar    1  ZINC000676564986    0.3600
     24 N24        -9.9545   -4.4138   58.5921 N.ar    1  ZINC000676564986   -0.5600
     25 C25       -10.5020   -3.2932   59.0505 C.ar    1  ZINC000676564986    0.3000
     26 H26        -8.0993   -1.6505   59.9332 H       1  ZINC000676564986    0.0800
     27 H27        -8.9151   -1.6724   61.5151 H       1  ZINC000676564986    0.0900
     28 H28        -8.4104   -3.1996   60.7527 H       1  ZINC000676564986    0.0900
     29 H29       -11.1016   -0.4953   60.5854 H       1  ZINC000676564986    0.2200
     30 H30       -14.4997   -4.1347   57.6155 H       1  ZINC000676564986    0.4200
     31 H31       -14.9912   -2.4951   56.0219 H       1  ZINC000676564986    0.0800
     32 H32       -14.0274   -1.4860   57.1269 H       1  ZINC000676564986    0.0800
     33 H33       -11.8040   -0.8497   56.5832 H       1  ZINC000676564986    0.1300
     34 H34       -10.0367   -0.6631   54.8810 H       1  ZINC000676564986    0.1400
     35 H35        -7.1494   -0.6189   52.5348 H       1  ZINC000676564986    0.1200
     36 H36        -6.5398    1.7635   52.6254 H       1  ZINC000676564986    0.1300
     37 H37        -8.2923    3.4891   52.5357 H       1  ZINC000676564986    0.1300
     38 H38       -10.6590    2.8387   52.3548 H       1  ZINC000676564986    0.1300
     39 H39       -11.2799    0.4595   52.2578 H       1  ZINC000676564986    0.1300
     40 H40       -12.1081   -3.4964   52.4351 H       1  ZINC000676564986    0.1300
     41 H41       -13.8666   -3.6791   54.1467 H       1  ZINC000676564986    0.1300
     42 H42       -10.1443   -6.1000   57.4136 H       1  ZINC000676564986    0.2000
@<TRIPOS>BOND
     1     1     2    1
     2     1    26    1
     3     1    27    1
     4     1    28    1
     5     2    25    1
     6     2     3    1
     7     3     4    2
     8     3    29    1
     9     4     5    1
    10     5    25   ar
    11     5     6   ar
    12     6     7    1
    13     6    22   ar
    14     7     8    1
    15     7    30    1
    16     8     9    1
    17     8    31    1
    18     8    32    1
    19     9    21   ar
    20     9    10   ar
    21    10    11   ar
    22    10    33    1
    23    11    12   ar
    24    11    34    1
    25    12    13    1
    26    12    20   ar
    27    13    14    1
    28    14    19   ar
    29    14    15   ar
    30    15    16   ar
    31    15    35    1
    32    16    17   ar
    33    16    36    1
    34    17    18   ar
    35    17    37    1
    36    18    19   ar
    37    18    38    1
    38    19    39    1
    39    20    21   ar
    40    20    40    1
    41    21    41    1
    42    22    23   ar
    43    23    24   ar
    44    23    42    1
    45    24    25   ar
@<TRIPOS>SUBSTRUCTURE
     1 ZINC000676564986        1 TEMP              0 ****  ****    0 ROOT


##########                                Name:    ZINC000623581528
##########                DOCK_Rotatable_Bonds:                   5
##########                         Heavy_Atoms:                  26
##########                    Molecular_Weight:             355.369
##########                DOCK_Rotatable_Bonds:                   5
##########                       Formal_Charge:        -4.47035e-07
##########                     HBond_Acceptors:                   7
##########                        HBond_Donors:                   2
##########                         Heavy_Atoms:                  26
##########                          Grid_Score:          -30.844042
##########                     Grid_vdw_energy:          -29.393803
##########                      Grid_es_energy:           -1.450240
##########           Internal_energy_repulsive:            6.374840

@<TRIPOS>MOLECULE
ZINC000623581528
 44 47 1 0 0
SMALL
USER_CHARGES


@<TRIPOS>ATOM
      1 C1        -14.6745   -1.8394   60.6153 C.3     1  ZINC000623581528    0.1000
      2 N2        -13.5139   -1.1982   61.2384 N.am    1  ZINC000623581528   -0.5500
      3 C3        -13.5456   -0.2494   62.1951 C.2     1  ZINC000623581528    0.6300
      4 O4        -14.5544    0.2185   62.6868 O.2     1  ZINC000623581528   -0.4800
      5 O5        -12.2909    0.0989   62.5210 O.3     1  ZINC000623581528   -0.2300
      6 C6        -11.4200   -0.6240   61.7752 C.ar    1  ZINC000623581528    0.0400
      7 C7        -10.0363   -0.6616   61.7098 C.ar    1  ZINC000623581528   -0.0800
      8 C8         -9.4112   -1.5233   60.8290 C.ar    1  ZINC000623581528   -0.0900
      9 C9        -10.1604   -2.3498   60.0105 C.ar    1  ZINC000623581528   -0.0900
     10 C10        -9.4693   -3.2862   59.0531 C.3     1  ZINC000623581528    0.1800
     11 N11        -9.8231   -2.9269   57.6776 N.am    1  ZINC000623581528   -0.7400
     12 C12       -10.7941   -3.6036   57.0329 C.2     1  ZINC000623581528    0.7100
     13 O13       -11.3755   -4.5133   57.5923 O.2     1  ZINC000623581528   -0.5800
     14 N14       -11.1207   -3.2720   55.7681 N.am    1  ZINC000623581528   -0.7300
     15 C15       -12.1775   -4.0064   55.0679 C.3     1  ZINC000623581528    0.2000
     16 H16       -12.2267   -5.0335   55.4294 H       1  ZINC000623581528    0.1000
     17 C17       -11.9251   -3.9863   53.5453 C.3     1  ZINC000623581528   -0.1300
     18 C18       -12.7308   -2.7502   53.0922 C.3     1  ZINC000623581528   -0.0800
     19 C19       -13.8292   -2.5940   54.1220 C.ar    1  ZINC000623581528   -0.1000
     20 C20       -15.0127   -1.8769   54.0691 C.ar    1  ZINC000623581528   -0.0800
     21 C21       -15.8769   -1.8804   55.1463 C.ar    1  ZINC000623581528   -0.1400
     22 C22       -15.5595   -2.6030   56.2836 C.ar    1  ZINC000623581528    0.0900
     23 F23       -16.4030   -2.6090   57.3390 F       1  ZINC000623581528   -0.1400
     24 C24       -14.3769   -3.3195   56.3375 C.ar    1  ZINC000623581528   -0.1200
     25 C25       -13.5115   -3.3174   55.2597 C.ar    1  ZINC000623581528   -0.0900
     26 C26       -11.5407   -2.3193   60.0686 C.ar    1  ZINC000623581528   -0.0800
     27 C27       -12.1744   -1.4623   60.9541 C.ar    1  ZINC000623581528    0.0700
     28 H28       -14.9514   -2.7247   61.1878 H       1  ZINC000623581528    0.0800
     29 H29       -15.5109   -1.1406   60.5998 H       1  ZINC000623581528    0.0900
     30 H30       -14.4249   -2.1299   59.5949 H       1  ZINC000623581528    0.0900
     31 H31        -9.4473   -0.0179   62.3462 H       1  ZINC000623581528    0.1500
     32 H32        -8.3328   -1.5516   60.7789 H       1  ZINC000623581528    0.1500
     33 H33        -8.3900   -3.2073   59.1831 H       1  ZINC000623581528    0.0800
     34 H34        -9.7856   -4.3098   59.2540 H       1  ZINC000623581528    0.0800
     35 H35        -9.3585   -2.2020   57.2309 H       1  ZINC000623581528    0.4000
     36 H36       -10.6561   -2.5471   55.3213 H       1  ZINC000623581528    0.4000
     37 H37       -10.8643   -3.8575   53.3301 H       1  ZINC000623581528    0.0900
     38 H38       -12.3094   -4.8923   53.0769 H       1  ZINC000623581528    0.0900
     39 H39       -12.0933   -1.8661   53.0820 H       1  ZINC000623581528    0.0800
     40 H40       -13.1596   -2.9196   52.1045 H       1  ZINC000623581528    0.0800
     41 H41       -15.2609   -1.3131   53.1821 H       1  ZINC000623581528    0.1300
     42 H42       -16.7990   -1.3200   55.1015 H       1  ZINC000623581528    0.1400
     43 H43       -14.1289   -3.8832   57.2246 H       1  ZINC000623581528    0.1400
     44 H44       -12.1239   -2.9651   59.4289 H       1  ZINC000623581528    0.1400
@<TRIPOS>BOND
     1     1     2    1
     2     1    28    1
     3     1    29    1
     4     1    30    1
     5     2    27    1
     6     2     3   am
     7     3     4    2
     8     3     5    1
     9     5     6    1
    10     6    27   ar
    11     6     7   ar
    12     7     8   ar
    13     7    31    1
    14     8     9   ar
    15     8    32    1
    16     9    10    1
    17     9    26   ar
    18    10    11    1
    19    10    33    1
    20    10    34    1
    21    11    12   am
    22    11    35    1
    23    12    13    2
    24    12    14   am
    25    14    15    1
    26    14    36    1
    27    15    16    1
    28    15    25    1
    29    15    17    1
    30    17    18    1
    31    17    37    1
    32    17    38    1
    33    18    19    1
    34    18    39    1
    35    18    40    1
    36    19    25   ar
    37    19    20   ar
    38    20    21   ar
    39    20    41    1
    40    21    22   ar
    41    21    42    1
    42    22    23    1
    43    22    24   ar
    44    24    25   ar
    45    24    43    1
    46    26    27   ar
    47    26    44    1
@<TRIPOS>SUBSTRUCTURE
     1 ZINC000623581528        1 TEMP              0 ****  ****    0 ROOT


##########                                Name:    ZINC000460163972
##########                DOCK_Rotatable_Bonds:                   7
##########                         Heavy_Atoms:                  28
##########                    Molecular_Weight:             408.469
##########                DOCK_Rotatable_Bonds:                   7
##########                       Formal_Charge:          -0.0100001
##########                     HBond_Acceptors:                   8
##########                        HBond_Donors:                   2
##########                         Heavy_Atoms:                  28
##########                          Grid_Score:          -30.835266
##########                     Grid_vdw_energy:          -28.926493
##########                      Grid_es_energy:           -1.908773
##########           Internal_energy_repulsive:           46.919830

@<TRIPOS>MOLECULE
ZINC000460163972
 50 52 1 0 0
SMALL
USER_CHARGES


@<TRIPOS>ATOM
      1 C1        -10.4981   -5.1745   57.4966 C.3     1  ZINC000460163972   -0.1400
      2 C2        -10.6517   -3.9839   58.4075 C.ar    1  ZINC000460163972    0.0100
      3 C3         -9.6397   -3.6559   59.2907 C.ar    1  ZINC000460163972   -0.1300
      4 C4         -9.7774   -2.5652   60.1271 C.ar    1  ZINC000460163972   -0.0600
      5 C5        -10.9334   -1.7977   60.0798 C.ar    1  ZINC000460163972    0.1100
      6 N6        -11.0759   -0.6919   60.9254 N.am    1  ZINC000460163972   -0.6700
      7 C7        -10.2151    0.3413   60.8345 C.2     1  ZINC000460163972    0.5200
      8 O8         -9.3170    0.3124   60.0198 O.2     1  ZINC000460163972   -0.5100
      9 C9        -10.3684    1.5322   61.7451 C.3     1  ZINC000460163972   -0.0700
     10 H10        -9.5472    1.5499   62.4615 H       1  ZINC000460163972    0.1200
     11 C11       -10.3473    2.8162   60.9133 C.3     1  ZINC000460163972   -0.1500
     12 C12       -11.6780    1.4340   62.4843 C.ar    1  ZINC000460163972   -0.0600
     13 C13       -11.6853    1.2438   63.8533 C.ar    1  ZINC000460163972   -0.0700
     14 C14       -12.8855    1.1532   64.5337 C.ar    1  ZINC000460163972   -0.1200
     15 C15       -14.0810    1.2535   63.8441 C.ar    1  ZINC000460163972    0.0700
     16 F16       -15.2542    1.1657   64.5083 F       1  ZINC000460163972   -0.1300
     17 C17       -14.0736    1.4449   62.4705 C.ar    1  ZINC000460163972    0.0700
     18 F18       -15.2395    1.5432   61.7951 F       1  ZINC000460163972   -0.1300
     19 C19       -12.8707    1.5399   61.7932 C.ar    1  ZINC000460163972   -0.1200
     20 C20       -11.9481   -2.1295   59.1912 C.ar    1  ZINC000460163972    0.0000
     21 C21       -13.2043   -1.2989   59.1364 C.3     1  ZINC000460163972   -0.1500
     22 C22       -11.8023   -3.2183   58.3545 C.ar    1  ZINC000460163972   -0.6700
     23 S23       -13.0885   -3.6398   57.2264 S.o2    1  ZINC000460163972    2.7000
     24 O24       -13.7479   -4.7729   57.7747 O.2     1  ZINC000460163972   -0.9500
     25 O25       -13.7592   -2.4273   56.9113 O.2     1  ZINC000460163972   -0.9500
     26 N26       -12.3651   -4.1513   55.8273 N.am    1  ZINC000460163972   -1.0900
     27 C27       -11.4796   -3.2484   55.0881 C.3     1  ZINC000460163972    0.0800
     28 C28       -11.1267   -3.6272   53.6482 C.3     1  ZINC000460163972   -0.1800
     29 C29       -12.0839   -2.4652   53.9209 C.3     1  ZINC000460163972   -0.1900
     30 H30       -10.1232   -4.8447   56.5277 H       1  ZINC000460163972    0.1000
     31 H31        -9.7944   -5.8808   57.9373 H       1  ZINC000460163972    0.0800
     32 H32       -11.4656   -5.6592   57.3660 H       1  ZINC000460163972    0.0700
     33 H33        -8.7407   -4.2533   59.3269 H       1  ZINC000460163972    0.1400
     34 H34        -8.9868   -2.3099   60.8172 H       1  ZINC000460163972    0.1600
     35 H35       -11.7941   -0.6688   61.5769 H       1  ZINC000460163972    0.4100
     36 H36       -10.4582    3.6775   61.5719 H       1  ZINC000460163972    0.0800
     37 H37        -9.4000    2.8871   60.3786 H       1  ZINC000460163972    0.0700
     38 H38       -11.1685    2.7985   60.1968 H       1  ZINC000460163972    0.0700
     39 H39       -10.7527    1.1653   64.3920 H       1  ZINC000460163972    0.1400
     40 H40       -12.8899    1.0039   65.6032 H       1  ZINC000460163972    0.1500
     41 H41       -12.8636    1.6892   60.7235 H       1  ZINC000460163972    0.1500
     42 H42       -13.1250   -0.5733   58.3268 H       1  ZINC000460163972    0.1000
     43 H43       -14.0618   -1.9482   58.9597 H       1  ZINC000460163972    0.1000
     44 H44       -13.3348   -0.7743   60.0830 H       1  ZINC000460163972    0.0700
     45 H45       -12.5279   -5.0489   55.4973 H       1  ZINC000460163972    0.4200
     46 H46       -10.7106   -2.7539   55.6815 H       1  ZINC000460163972    0.1300
     47 H47       -10.1254   -3.3820   53.2943 H       1  ZINC000460163972    0.1100
     48 H48       -11.5535   -4.5482   53.2511 H       1  ZINC000460163972    0.1000
     49 H49       -13.1404   -2.6217   53.7032 H       1  ZINC000460163972    0.1000
     50 H50       -11.7123   -1.4554   53.7464 H       1  ZINC000460163972    0.1000
@<TRIPOS>BOND
     1     1     2    1
     2     1    30    1
     3     1    31    1
     4     1    32    1
     5     2    22   ar
     6     2     3   ar
     7     3     4   ar
     8     3    33    1
     9     4     5   ar
    10     4    34    1
    11     5     6    1
    12     5    20   ar
    13     6     7   am
    14     6    35    1
    15     7     8    2
    16     7     9    1
    17     9    10    1
    18     9    11    1
    19     9    12    1
    20    11    36    1
    21    11    37    1
    22    11    38    1
    23    12    19   ar
    24    12    13   ar
    25    13    14   ar
    26    13    39    1
    27    14    15   ar
    28    14    40    1
    29    15    16    1
    30    15    17   ar
    31    17    18    1
    32    17    19   ar
    33    19    41    1
    34    20    21    1
    35    20    22   ar
    36    21    42    1
    37    21    43    1
    38    21    44    1
    39    22    23    1
    40    23    24    2
    41    23    25    2
    42    23    26   am
    43    26    27    1
    44    26    45    1
    45    27    29    1
    46    27    28    1
    47    27    46    1
    48    28    29    1
    49    28    47    1
    50    28    48    1
    51    29    49    1
    52    29    50    1
@<TRIPOS>SUBSTRUCTURE
     1 ZINC000460163972        1 TEMP              0 ****  ****    0 ROOT


##########                                Name:    ZINC000467104849
##########                DOCK_Rotatable_Bonds:                   6
##########                         Heavy_Atoms:                  29
##########                    Molecular_Weight:             421.896
##########                DOCK_Rotatable_Bonds:                   6
##########                       Formal_Charge:           0.0200002
##########                     HBond_Acceptors:                   7
##########                        HBond_Donors:                   0
##########                         Heavy_Atoms:                  29
##########                          Grid_Score:          -30.829609
##########                     Grid_vdw_energy:          -30.540522
##########                      Grid_es_energy:           -0.289087
##########           Internal_energy_repulsive:          105.310127

@<TRIPOS>MOLECULE
ZINC000467104849
 54 56 1 0 0
SMALL
USER_CHARGES


@<TRIPOS>ATOM
      1 C1        -14.1653   -1.5108   48.2118 C.3     1  ZINC000467104849    0.0200
      2 O2        -13.6263   -0.9334   49.4027 O.3     1  ZINC000467104849   -0.3000
      3 C3        -14.3319   -1.1152   50.5510 C.ar    1  ZINC000467104849    0.1000
      4 C4        -13.8716   -0.5766   51.7413 C.ar    1  ZINC000467104849   -0.1700
      5 C5        -14.5904   -0.7621   52.9079 C.ar    1  ZINC000467104849   -0.1200
      6 C6        -15.7683   -1.4848   52.8900 C.ar    1  ZINC000467104849   -0.0800
      7 C7        -16.5475   -1.6844   54.1643 C.3     1  ZINC000467104849   -0.0400
      8 C8        -17.5036   -0.5072   54.3672 C.3     1  ZINC000467104849   -0.1300
      9 C9        -17.3504   -2.9836   54.0731 C.3     1  ZINC000467104849   -0.1600
     10 C10       -15.5943   -1.7637   55.3288 C.2     1  ZINC000467104849    0.5300
     11 O11       -15.7132   -0.9995   56.2631 O.2     1  ZINC000467104849   -0.5300
     12 N12       -14.6095   -2.6839   55.3321 N.am    1  ZINC000467104849   -0.6100
     13 C13       -14.4454   -3.6216   54.2101 C.3     1  ZINC000467104849    0.0600
     14 C14       -12.9816   -3.5817   53.7567 C.3     1  ZINC000467104849    0.0500
     15 O15       -12.1326   -3.7903   54.8879 O.3     1  ZINC000467104849   -0.3700
     16 C16       -12.2404   -2.7811   55.8946 C.3     1  ZINC000467104849    0.1300
     17 H17       -12.0205   -1.8066   55.4584 H       1  ZINC000467104849    0.0800
     18 C18       -11.2608   -3.0690   57.0030 C.ar    1  ZINC000467104849   -0.0900
     19 C19       -11.0728   -4.3673   57.4383 C.ar    1  ZINC000467104849   -0.0500
     20 C20       -10.1747   -4.6334   58.4549 C.ar    1  ZINC000467104849   -0.1400
     21 C21        -9.4627   -3.5991   59.0372 C.ar    1  ZINC000467104849    0.1200
     22 F22        -8.5844   -3.8582   60.0305 F       1  ZINC000467104849   -0.1200
     23 C23        -9.6514   -2.2976   58.6000 C.ar    1  ZINC000467104849   -0.0800
     24 Cl24       -8.7595   -0.9986   59.3288 Cl      1  ZINC000467104849   -0.0400
     25 C25       -10.5469   -2.0350   57.5796 C.ar    1  ZINC000467104849   -0.0700
     26 C26       -13.6628   -2.7764   56.4548 C.3     1  ZINC000467104849    0.0900
     27 C27       -16.2338   -2.0249   51.7050 C.ar    1  ZINC000467104849   -0.1600
     28 C28       -15.5212   -1.8383   50.5318 C.ar    1  ZINC000467104849    0.1100
     29 O29       -15.9775   -2.3687   49.3657 O.3     1  ZINC000467104849   -0.3000
     30 C30       -17.2006   -3.1054   49.4227 C.3     1  ZINC000467104849    0.0200
     31 H31       -13.5065   -1.2919   47.3716 H       1  ZINC000467104849    0.1000
     32 H32       -14.2483   -2.5905   48.3368 H       1  ZINC000467104849    0.0600
     33 H33       -15.1523   -1.0906   48.0188 H       1  ZINC000467104849    0.0600
     34 H34       -12.9510   -0.0121   51.7582 H       1  ZINC000467104849    0.1400
     35 H35       -14.2304   -0.3417   53.8353 H       1  ZINC000467104849    0.1300
     36 H36       -18.2483   -0.5027   53.5712 H       1  ZINC000467104849    0.0700
     37 H37       -18.0027   -0.6064   55.3312 H       1  ZINC000467104849    0.0700
     38 H38       -16.9410    0.4261   54.3437 H       1  ZINC000467104849    0.0700
     39 H39       -16.6663   -3.8304   54.0180 H       1  ZINC000467104849    0.0700
     40 H40       -17.9817   -3.0834   54.9560 H       1  ZINC000467104849    0.0700
     41 H41       -17.9752   -2.9626   53.1802 H       1  ZINC000467104849    0.0700
     42 H42       -14.7019   -4.6303   54.5341 H       1  ZINC000467104849    0.0800
     43 H43       -15.0933   -3.3245   53.3854 H       1  ZINC000467104849    0.1100
     44 H44       -12.8069   -4.3665   53.0207 H       1  ZINC000467104849    0.1100
     45 H45       -12.7643   -2.6102   53.3127 H       1  ZINC000467104849    0.0600
     46 H46       -11.6282   -5.1745   56.9841 H       1  ZINC000467104849    0.1500
     47 H47       -10.0288   -5.6480   58.7949 H       1  ZINC000467104849    0.1500
     48 H48       -10.6941   -1.0210   57.2382 H       1  ZINC000467104849    0.1500
     49 H49       -13.7932   -1.9213   57.1183 H       1  ZINC000467104849    0.1100
     50 H50       -13.8438   -3.6996   57.0052 H       1  ZINC000467104849    0.0800
     51 H51       -17.1545   -2.5891   51.6937 H       1  ZINC000467104849    0.1400
     52 H52       -17.0850   -3.9493   50.1030 H       1  ZINC000467104849    0.0600
     53 H53       -17.9993   -2.4562   49.7816 H       1  ZINC000467104849    0.0600
     54 H54       -17.4504   -3.4726   48.4273 H       1  ZINC000467104849    0.1000
@<TRIPOS>BOND
     1     1     2    1
     2     1    31    1
     3     1    32    1
     4     1    33    1
     5     2     3    1
     6     3    28   ar
     7     3     4   ar
     8     4     5   ar
     9     4    34    1
    10     5     6   ar
    11     5    35    1
    12     6     7    1
    13     6    27   ar
    14     7     8    1
    15     7     9    1
    16     7    10    1
    17     8    36    1
    18     8    37    1
    19     8    38    1
    20     9    39    1
    21     9    40    1
    22     9    41    1
    23    10    11    2
    24    10    12   am
    25    12    26    1
    26    12    13    1
    27    13    14    1
    28    13    42    1
    29    13    43    1
    30    14    15    1
    31    14    44    1
    32    14    45    1
    33    15    16    1
    34    16    17    1
    35    16    18    1
    36    16    26    1
    37    18    25   ar
    38    18    19   ar
    39    19    20   ar
    40    19    46    1
    41    20    21   ar
    42    20    47    1
    43    21    22    1
    44    21    23   ar
    45    23    24    1
    46    23    25   ar
    47    25    48    1
    48    26    49    1
    49    26    50    1
    50    27    28   ar
    51    27    51    1
    52    28    29    1
    53    29    30    1
    54    30    52    1
    55    30    53    1
    56    30    54    1
@<TRIPOS>SUBSTRUCTURE
     1 ZINC000467104849        1 TEMP              0 ****  ****    0 ROOT


##########                                Name:    ZINC000543020509
##########                DOCK_Rotatable_Bonds:                   5
##########                         Heavy_Atoms:                  26
##########                    Molecular_Weight:              366.81
##########                DOCK_Rotatable_Bonds:                   5
##########                       Formal_Charge:               -0.02
##########                     HBond_Acceptors:                   8
##########                        HBond_Donors:                   1
##########                         Heavy_Atoms:                  26
##########                          Grid_Score:          -30.825172
##########                     Grid_vdw_energy:          -28.886347
##########                      Grid_es_energy:           -1.938826
##########           Internal_energy_repulsive:            8.789479

@<TRIPOS>MOLECULE
ZINC000543020509
 41 43 1 0 0
SMALL
USER_CHARGES


@<TRIPOS>ATOM
      1 C1        -10.8298   -0.1133   53.0068 C.3     1  ZINC000543020509    0.0800
      2 N2        -11.8227   -1.1553   52.7333 N.pl3   1  ZINC000543020509   -0.6200
      3 C3        -12.6726   -1.0628   51.5437 C.3     1  ZINC000543020509    0.0900
      4 C4        -11.9583   -2.2330   53.6035 C.ar    1  ZINC000543020509    0.2500
      5 C5        -12.4815   -3.4469   53.1612 C.ar    1  ZINC000543020509   -0.2200
      6 C6        -12.6016   -4.4964   54.0533 C.ar    1  ZINC000543020509    0.1400
      7 N7        -12.2297   -4.3645   55.3090 N.ar    1  ZINC000543020509   -0.5000
      8 C8        -11.7259   -3.2267   55.7748 C.ar    1  ZINC000543020509    0.1100
      9 C9        -11.3222   -3.1307   57.1968 C.2     1  ZINC000543020509    0.5900
     10 O10       -11.8116   -3.8798   58.0193 O.2     1  ZINC000543020509   -0.5000
     11 N11       -10.4124   -2.2127   57.5787 N.am    1  ZINC000543020509   -0.6200
     12 C12       -10.0298   -2.1232   58.9220 C.2     1  ZINC000543020509    0.3200
     13 N13       -10.3338   -1.1473   59.7453 N.2     1  ZINC000543020509   -0.3100
     14 N14        -9.7637   -1.4332   60.9927 N.pl3   1  ZINC000543020509   -0.3300
     15 C15        -9.8564   -0.6411   62.1397 C.ar    1  ZINC000543020509    0.2200
     16 C16        -8.7058   -0.2094   62.7828 C.ar    1  ZINC000543020509   -0.1300
     17 C17        -8.7987    0.5739   63.9169 C.ar    1  ZINC000543020509   -0.0500
     18 C18       -10.0384    0.9340   64.4204 C.ar    1  ZINC000543020509   -0.0600
     19 Cl19      -10.1390    1.9188   65.8465 Cl      1  ZINC000543020509   -0.0500
     20 C20       -11.1935    0.5136   63.7929 C.ar    1  ZINC000543020509   -0.0400
     21 C21       -11.1136   -0.2740   62.6427 C.ar    1  ZINC000543020509   -0.0200
     22 C22       -12.3081   -0.7136   61.9866 C.1     1  ZINC000543020509    0.2500
     23 N23       -13.2557   -1.0624   61.4661 N.1     1  ZINC000543020509   -0.3800
     24 C24        -9.1053   -2.6173   60.8899 C.2     1  ZINC000543020509    0.0700
     25 C25        -9.2589   -3.0655   59.6237 C.2     1  ZINC000543020509   -0.2400
     26 C26       -11.5688   -2.1272   54.9387 C.ar    1  ZINC000543020509   -0.1800
     27 H27       -11.2828    0.6695   53.6152 H       1  ZINC000543020509    0.0600
     28 H28        -9.9858   -0.5474   53.5430 H       1  ZINC000543020509    0.0700
     29 H29       -10.4819    0.3132   52.0660 H       1  ZINC000543020509    0.0700
     30 H30       -12.4235   -0.1585   50.9884 H       1  ZINC000543020509    0.0800
     31 H31       -12.5078   -1.9347   50.9106 H       1  ZINC000543020509    0.0600
     32 H32       -13.7190   -1.0264   51.8467 H       1  ZINC000543020509    0.0600
     33 H33       -12.7902   -3.5662   52.1331 H       1  ZINC000543020509    0.1400
     34 H34       -13.0068   -5.4385   53.7147 H       1  ZINC000543020509    0.1700
     35 H35       -10.0226   -1.6141   56.9225 H       1  ZINC000543020509    0.4300
     36 H36        -7.7360   -0.4862   62.3966 H       1  ZINC000543020509    0.1500
     37 H37        -7.8998    0.9071   64.4141 H       1  ZINC000543020509    0.1500
     38 H38       -12.1576    0.7966   64.1887 H       1  ZINC000543020509    0.1500
     39 H39        -8.5603   -3.1135   61.6793 H       1  ZINC000543020509    0.1900
     40 H40        -8.8550   -3.9826   59.2209 H       1  ZINC000543020509    0.1800
     41 H41       -11.1586   -1.2032   55.3188 H       1  ZINC000543020509    0.1500
@<TRIPOS>BOND
     1     1     2    1
     2     1    27    1
     3     1    28    1
     4     1    29    1
     5     2     3    1
     6     2     4    1
     7     3    30    1
     8     3    31    1
     9     3    32    1
    10     4    26   ar
    11     4     5   ar
    12     5     6   ar
    13     5    33    1
    14     6     7   ar
    15     6    34    1
    16     7     8   ar
    17     8     9    1
    18     8    26   ar
    19     9    10    2
    20     9    11   am
    21    11    12    1
    22    11    35    1
    23    12    25    1
    24    12    13    2
    25    13    14    1
    26    14    15    1
    27    14    24    1
    28    15    21   ar
    29    15    16   ar
    30    16    17   ar
    31    16    36    1
    32    17    18   ar
    33    17    37    1
    34    18    19    1
    35    18    20   ar
    36    20    21   ar
    37    20    38    1
    38    21    22    1
    39    22    23    3
    40    24    25    2
    41    24    39    1
    42    25    40    1
    43    26    41    1
@<TRIPOS>SUBSTRUCTURE
     1 ZINC000543020509        1 TEMP              0 ****  ****    0 ROOT


##########                                Name:    ZINC000330515179
##########                DOCK_Rotatable_Bonds:                   4
##########                         Heavy_Atoms:                  21
##########                    Molecular_Weight:             378.287
##########                DOCK_Rotatable_Bonds:                   4
##########                       Formal_Charge:           0.0200002
##########                     HBond_Acceptors:                   6
##########                        HBond_Donors:                   0
##########                         Heavy_Atoms:                  21
##########                          Grid_Score:          -30.806374
##########                     Grid_vdw_energy:          -30.912474
##########                      Grid_es_energy:            0.106099
##########           Internal_energy_repulsive:            5.328123

@<TRIPOS>MOLECULE
ZINC000330515179
 41 42 1 0 0
SMALL
USER_CHARGES


@<TRIPOS>ATOM
      1 C1         -9.2685   -3.0045   60.4550 C.3     1  ZINC000330515179    0.0300
      2 O2        -10.3629   -3.2004   59.5572 O.3     1  ZINC000330515179   -0.3800
      3 C3        -10.1206   -4.1869   58.5521 C.3     1  ZINC000330515179    0.0700
      4 C4        -11.3131   -4.2434   57.5951 C.3     1  ZINC000330515179    0.0800
      5 H5        -11.5553   -5.2833   57.3762 H       1  ZINC000330515179    0.0800
      6 C6        -10.9598   -3.5150   56.2933 C.3     1  ZINC000330515179    0.0900
      7 N7        -12.1757   -3.4202   55.4699 N.am    1  ZINC000330515179   -1.0000
      8 S8        -12.1691   -3.8917   53.8824 S.o2    1  ZINC000330515179    2.6900
      9 O9        -10.8193   -4.1977   53.5604 O.2     1  ZINC000330515179   -0.9400
     10 O10       -13.2332   -4.8219   53.7357 O.2     1  ZINC000330515179   -0.9500
     11 C11       -12.6035   -2.4826   52.9180 C.ar    1  ZINC000330515179   -0.6700
     12 C12       -13.8301   -2.4317   52.2824 C.ar    1  ZINC000330515179   -0.0100
     13 C13       -14.1714   -1.3263   51.5260 C.ar    1  ZINC000330515179   -0.1100
     14 C14       -13.2855   -0.2708   51.4052 C.ar    1  ZINC000330515179   -0.0400
     15 Br15      -13.7523    1.2421   50.3711 Br      1  ZINC000330515179   -0.0300
     16 C16       -12.0584   -0.3221   52.0414 C.ar    1  ZINC000330515179   -0.1100
     17 C17       -11.7200   -1.4257   52.8018 C.ar    1  ZINC000330515179   -0.0100
     18 C18       -13.3974   -2.8935   56.0986 C.3     1  ZINC000330515179    0.1000
     19 C19       -13.6320   -3.6521   57.4099 C.3     1  ZINC000330515179    0.1000
     20 C20       -14.7812   -2.9986   58.1799 C.3     1  ZINC000330515179   -0.1400
     21 C21       -13.9862   -5.1083   57.1015 C.3     1  ZINC000330515179   -0.1800
     22 O22       -12.4414   -3.6073   58.2001 O.3     1  ZINC000330515179   -0.3500
     23 H23        -9.5313   -2.2409   61.1871 H       1  ZINC000330515179    0.0900
     24 H24        -9.0483   -3.9401   60.9691 H       1  ZINC000330515179    0.0400
     25 H25        -8.3911   -2.6831   59.8937 H       1  ZINC000330515179    0.0400
     26 H26        -9.2205   -3.9254   57.9958 H       1  ZINC000330515179    0.0600
     27 H27        -9.9865   -5.1605   59.0234 H       1  ZINC000330515179    0.0700
     28 H28       -10.5914   -2.5147   56.5206 H       1  ZINC000330515179    0.0900
     29 H29       -10.1948   -4.0750   55.7553 H       1  ZINC000330515179    0.1000
     30 H30       -14.5216   -3.2560   52.3764 H       1  ZINC000330515179    0.1500
     31 H31       -15.1296   -1.2868   51.0292 H       1  ZINC000330515179    0.1500
     32 H32       -11.3664    0.5017   51.9474 H       1  ZINC000330515179    0.1500
     33 H33       -10.7619   -1.4658   53.2985 H       1  ZINC000330515179    0.1500
     34 H34       -13.2745   -1.8306   56.3064 H       1  ZINC000330515179    0.0900
     35 H35       -14.2468   -3.0419   55.4317 H       1  ZINC000330515179    0.1000
     36 H36       -15.6877   -3.0299   57.5754 H       1  ZINC000330515179    0.0800
     37 H37       -14.9474   -3.5385   59.1121 H       1  ZINC000330515179    0.0700
     38 H38       -14.5274   -1.9618   58.4008 H       1  ZINC000330515179    0.0700
     39 H39       -13.1663   -5.5738   56.5546 H       1  ZINC000330515179    0.0600
     40 H40       -14.1528   -5.6470   58.0343 H       1  ZINC000330515179    0.0700
     41 H41       -14.8920   -5.1414   56.4961 H       1  ZINC000330515179    0.0700
@<TRIPOS>BOND
     1     1     2    1
     2     1    23    1
     3     1    24    1
     4     1    25    1
     5     2     3    1
     6     3     4    1
     7     3    26    1
     8     3    27    1
     9     4     5    1
    10     4    22    1
    11     4     6    1
    12     6     7    1
    13     6    28    1
    14     6    29    1
    15     7     8   am
    16     7    18    1
    17     8     9    2
    18     8    10    2
    19     8    11    1
    20    11    17   ar
    21    11    12   ar
    22    12    13   ar
    23    12    30    1
    24    13    14   ar
    25    13    31    1
    26    14    15    1
    27    14    16   ar
    28    16    17   ar
    29    16    32    1
    30    17    33    1
    31    18    19    1
    32    18    34    1
    33    18    35    1
    34    19    20    1
    35    19    21    1
    36    19    22    1
    37    20    36    1
    38    20    37    1
    39    20    38    1
    40    21    39    1
    41    21    40    1
    42    21    41    1
@<TRIPOS>SUBSTRUCTURE
     1 ZINC000330515179        1 TEMP              0 ****  ****    0 ROOT


##########                                Name:    ZINC001058772245
##########                DOCK_Rotatable_Bonds:                  11
##########                         Heavy_Atoms:                  22
##########                    Molecular_Weight:             335.375
##########                DOCK_Rotatable_Bonds:                  11
##########                       Formal_Charge:          0.00999964
##########                     HBond_Acceptors:                   9
##########                        HBond_Donors:                   2
##########                         Heavy_Atoms:                  22
##########                          Grid_Score:          -30.794279
##########                     Grid_vdw_energy:          -29.512383
##########                      Grid_es_energy:           -1.281897
##########           Internal_energy_repulsive:           69.354828

@<TRIPOS>MOLECULE
ZINC001058772245
 41 41 1 0 0
SMALL
USER_CHARGES


@<TRIPOS>ATOM
      1 C1        -11.0762   -1.9037   54.5048 C.3     1  ZINC001058772245   -0.1700
      2 C2        -12.0918   -2.4908   53.5226 C.3     1  ZINC001058772245   -0.1400
      3 C3        -11.3631   -2.9912   52.2739 C.3     1  ZINC001058772245   -0.1500
      4 C4        -12.8161   -3.6395   54.1758 C.2     1  ZINC001058772245    0.5300
      5 O5        -12.6998   -4.7616   53.7304 O.2     1  ZINC001058772245   -0.5200
      6 N6        -13.5932   -3.4200   55.2549 N.am    1  ZINC001058772245   -0.5900
      7 C7        -13.7337   -2.0647   55.7929 C.3     1  ZINC001058772245    0.0800
      8 C8        -15.2114   -1.6679   55.7964 C.3     1  ZINC001058772245    0.0400
      9 O9        -15.3699   -0.4272   56.4874 O.3     1  ZINC001058772245   -0.5700
     10 C10       -14.2974   -4.5368   55.8898 C.3     1  ZINC001058772245    0.1100
     11 C11       -13.3006   -5.3822   56.6852 C.3     1  ZINC001058772245    0.1000
     12 N12       -12.4325   -4.5025   57.4718 N.am    1  ZINC001058772245   -0.7100
     13 C13       -11.2164   -4.9310   57.8640 C.2     1  ZINC001058772245    0.6000
     14 O14       -10.8389   -6.0476   57.5636 O.2     1  ZINC001058772245   -0.5300
     15 C15       -10.3445   -4.0473   58.6562 C.2     1  ZINC001058772245    0.0000
     16 C16       -10.6514   -2.7597   58.9319 C.2     1  ZINC001058772245   -0.2200
     17 S17        -9.3932   -2.0812   59.8693 S.3     1  ZINC001058772245    0.2300
     18 C18        -8.5305   -3.5547   59.8393 C.2     1  ZINC001058772245    0.0000
     19 N19        -9.1793   -4.4446   59.1743 N.2     1  ZINC001058772245   -0.4400
     20 C20       -13.1006   -1.4111   53.1260 C.3     1  ZINC001058772245    0.2900
     21 F21       -12.6560   -0.1664   53.5847 F       1  ZINC001058772245   -0.1900
     22 F22       -13.2244   -1.3776   51.7328 F       1  ZINC001058772245   -0.2000
     23 H23       -10.7638   -0.9184   54.1589 H       1  ZINC001058772245    0.0800
     24 H24       -11.5333   -1.8147   55.4903 H       1  ZINC001058772245    0.0700
     25 H25       -10.2078   -2.5598   54.5651 H       1  ZINC001058772245    0.0900
     26 H26       -10.8475   -3.9238   52.5033 H       1  ZINC001058772245    0.0800
     27 H27       -12.0855   -3.1623   51.4757 H       1  ZINC001058772245    0.0700
     28 H28       -10.6371   -2.2441   51.9530 H       1  ZINC001058772245    0.0900
     29 H29       -13.3475   -2.0365   56.8119 H       1  ZINC001058772245    0.0900
     30 H30       -13.1715   -1.3672   55.1719 H       1  ZINC001058772245    0.1200
     31 H31       -15.5607   -1.5592   54.7696 H       1  ZINC001058772245    0.0600
     32 H32       -15.7938   -2.4405   56.2985 H       1  ZINC001058772245    0.0700
     33 H33       -14.8523    0.2995   56.1145 H       1  ZINC001058772245    0.3800
     34 H34       -15.0625   -4.1488   56.5622 H       1  ZINC001058772245    0.1000
     35 H35       -14.7664   -5.1535   55.1231 H       1  ZINC001058772245    0.0900
     36 H36       -13.8431   -6.0501   57.3543 H       1  ZINC001058772245    0.0700
     37 H37       -12.6937   -5.9711   55.9974 H       1  ZINC001058772245    0.0700
     38 H38       -12.7330   -3.6116   57.7104 H       1  ZINC001058772245    0.4100
     39 H39       -11.5450   -2.2443   58.6122 H       1  ZINC001058772245    0.1900
     40 H40        -7.5749   -3.7178   60.3152 H       1  ZINC001058772245    0.2100
     41 H41       -14.0693   -1.6376   53.5714 H       1  ZINC001058772245    0.1200
@<TRIPOS>BOND
     1     1     2    1
     2     1    23    1
     3     1    24    1
     4     1    25    1
     5     2     3    1
     6     2     4    1
     7     2    20    1
     8     3    26    1
     9     3    27    1
    10     3    28    1
    11     4     5    2
    12     4     6   am
    13     6     7    1
    14     6    10    1
    15     7     8    1
    16     7    29    1
    17     7    30    1
    18     8     9    1
    19     8    31    1
    20     8    32    1
    21     9    33    1
    22    10    11    1
    23    10    34    1
    24    10    35    1
    25    11    12    1
    26    11    36    1
    27    11    37    1
    28    12    13   am
    29    12    38    1
    30    13    14    2
    31    13    15    1
    32    15    19    1
    33    15    16    2
    34    16    17    1
    35    16    39    1
    36    17    18    1
    37    18    19    2
    38    18    40    1
    39    20    21    1
    40    20    22    1
    41    20    41    1
@<TRIPOS>SUBSTRUCTURE
     1 ZINC001058772245        1 TEMP              0 ****  ****    0 ROOT


##########                                Name:    ZINC000477589488
##########                DOCK_Rotatable_Bonds:                   6
##########                         Heavy_Atoms:                  32
##########                    Molecular_Weight:             423.517
##########                DOCK_Rotatable_Bonds:                   6
##########                       Formal_Charge:        -8.19564e-07
##########                     HBond_Acceptors:                   6
##########                        HBond_Donors:                   1
##########                         Heavy_Atoms:                  32
##########                          Grid_Score:          -30.774790
##########                     Grid_vdw_energy:          -30.835079
##########                      Grid_es_energy:            0.060289
##########           Internal_energy_repulsive:           20.535641

@<TRIPOS>MOLECULE
ZINC000477589488
 57 61 1 0 0
SMALL
USER_CHARGES


@<TRIPOS>ATOM
      1 O1        -11.6550    1.1304   55.1640 O.2     1  ZINC000477589488   -0.5800
      2 C2        -10.9949    0.2389   54.6661 C.2     1  ZINC000477589488    0.7100
      3 N3        -10.9304   -0.9668   55.2648 N.am    1  ZINC000477589488   -0.7400
      4 C4        -11.6508   -1.2015   56.5187 C.3     1  ZINC000477589488    0.2500
      5 H5        -11.7261   -0.2671   57.0748 H       1  ZINC000477589488    0.1100
      6 C6        -10.9051   -2.2185   57.3438 C.ar    1  ZINC000477589488   -0.0900
      7 C7        -10.3142   -1.8423   58.5355 C.ar    1  ZINC000477589488   -0.1000
      8 C8         -9.6301   -2.7751   59.2924 C.ar    1  ZINC000477589488   -0.1200
      9 C9         -9.5375   -4.0842   58.8578 C.ar    1  ZINC000477589488   -0.1200
     10 C10       -10.1292   -4.4605   57.6665 C.ar    1  ZINC000477589488   -0.1200
     11 C11       -10.8169   -3.5286   56.9117 C.ar    1  ZINC000477589488   -0.1000
     12 C12       -13.0335   -1.7178   56.2146 C.ar    1  ZINC000477589488   -0.0700
     13 C13       -14.0900   -1.4767   57.1089 C.ar    1  ZINC000477589488   -0.0400
     14 C14       -13.8892   -0.7552   58.2982 C.ar    1  ZINC000477589488   -0.1100
     15 C15       -14.9363   -0.5407   59.1405 C.ar    1  ZINC000477589488   -0.1100
     16 C16       -16.2083   -1.0266   58.8426 C.ar    1  ZINC000477589488   -0.1100
     17 C17       -16.4401   -1.7297   57.7007 C.ar    1  ZINC000477589488   -0.1100
     18 C18       -15.3836   -1.9705   56.8057 C.ar    1  ZINC000477589488   -0.0500
     19 C19       -15.5844   -2.6916   55.6167 C.ar    1  ZINC000477589488   -0.1000
     20 C20       -14.5373   -2.9051   54.7735 C.ar    1  ZINC000477589488   -0.1100
     21 C21       -13.2668   -2.4154   55.0691 C.ar    1  ZINC000477589488   -0.1100
     22 N22       -10.3321    0.4549   53.5126 N.am    1  ZINC000477589488   -0.6300
     23 C23       -10.3841    1.7648   52.8459 C.3     1  ZINC000477589488    0.1300
     24 C24        -8.9505    2.2172   52.5490 C.3     1  ZINC000477589488    0.0500
     25 N25        -8.2541    1.1648   51.7972 N.3     1  ZINC000477589488   -0.4700
     26 C26        -7.0056    1.6017   51.3683 C.ar    1  ZINC000477589488    0.2500
     27 C27        -6.2014    2.3642   52.2146 C.ar    1  ZINC000477589488   -0.1300
     28 C28        -4.9659    2.7749   51.7394 C.ar    1  ZINC000477589488   -0.0900
     29 C29        -4.6053    2.4026   50.4522 C.ar    1  ZINC000477589488    0.0200
     30 N30        -5.4288    1.6792   49.7198 N.ar    1  ZINC000477589488   -0.2200
     31 N31        -6.5720    1.2908   50.1552 N.ar    1  ZINC000477589488   -0.2800
     32 C32        -8.1373   -0.0672   52.5887 C.3     1  ZINC000477589488    0.0400
     33 C33        -9.5328   -0.6114   52.8903 C.3     1  ZINC000477589488    0.1200
     34 H34       -10.4071   -1.6792   54.8655 H       1  ZINC000477589488    0.3900
     35 H35       -10.3865   -0.8197   58.8751 H       1  ZINC000477589488    0.1100
     36 H36        -9.1678   -2.4812   60.2231 H       1  ZINC000477589488    0.1200
     37 H37        -9.0024   -4.8127   59.4488 H       1  ZINC000477589488    0.1200
     38 H38       -10.0565   -5.4830   57.3268 H       1  ZINC000477589488    0.1200
     39 H39       -11.2792   -3.8225   55.9810 H       1  ZINC000477589488    0.1200
     40 H40       -12.9090   -0.3732   58.5425 H       1  ZINC000477589488    0.1300
     41 H41       -14.7793    0.0141   60.0537 H       1  ZINC000477589488    0.1300
     42 H42       -17.0220   -0.8427   59.5285 H       1  ZINC000477589488    0.1300
     43 H43       -17.4309   -2.1007   57.4834 H       1  ZINC000477589488    0.1300
     44 H44       -16.5643   -3.0750   55.3733 H       1  ZINC000477589488    0.1300
     45 H45       -14.6943   -3.4601   53.8604 H       1  ZINC000477589488    0.1300
     46 H46       -12.4532   -2.5985   54.3828 H       1  ZINC000477589488    0.1200
     47 H47       -10.9416    1.6790   51.9131 H       1  ZINC000477589488    0.0800
     48 H48       -10.8688    2.4896   53.5000 H       1  ZINC000477589488    0.1100
     49 H49        -8.9730    3.1326   51.9576 H       1  ZINC000477589488    0.1000
     50 H50        -8.4260    2.4022   53.4865 H       1  ZINC000477589488    0.0600
     51 H51        -6.5312    2.6268   53.2089 H       1  ZINC000477589488    0.1500
     52 H52        -4.3034    3.3676   52.3528 H       1  ZINC000477589488    0.1500
     53 H53        -3.6499    2.7057   50.0501 H       1  ZINC000477589488    0.1700
     54 H54        -7.5702   -0.8087   52.0259 H       1  ZINC000477589488    0.1000
     55 H55        -7.6242    0.1496   53.5255 H       1  ZINC000477589488    0.0600
     56 H56        -9.4559   -1.4587   53.5717 H       1  ZINC000477589488    0.0800
     57 H57       -10.0114   -0.9259   51.9630 H       1  ZINC000477589488    0.0900
@<TRIPOS>BOND
     1     1     2    2
     2     2     3   am
     3     2    22   am
     4     3     4    1
     5     3    34    1
     6     4     5    1
     7     4     6    1
     8     4    12    1
     9     6    11   ar
    10     6     7   ar
    11     7     8   ar
    12     7    35    1
    13     8     9   ar
    14     8    36    1
    15     9    10   ar
    16     9    37    1
    17    10    11   ar
    18    10    38    1
    19    11    39    1
    20    12    21   ar
    21    12    13   ar
    22    13    18   ar
    23    13    14   ar
    24    14    15   ar
    25    14    40    1
    26    15    16   ar
    27    15    41    1
    28    16    17   ar
    29    16    42    1
    30    17    18   ar
    31    17    43    1
    32    18    19   ar
    33    19    20   ar
    34    19    44    1
    35    20    21   ar
    36    20    45    1
    37    21    46    1
    38    22    33    1
    39    22    23    1
    40    23    24    1
    41    23    47    1
    42    23    48    1
    43    24    25    1
    44    24    49    1
    45    24    50    1
    46    25    26    1
    47    25    32    1
    48    26    31   ar
    49    26    27   ar
    50    27    28   ar
    51    27    51    1
    52    28    29   ar
    53    28    52    1
    54    29    30   ar
    55    29    53    1
    56    30    31   ar
    57    32    33    1
    58    32    54    1
    59    32    55    1
    60    33    56    1
    61    33    57    1
@<TRIPOS>SUBSTRUCTURE
     1 ZINC000477589488        1 TEMP              0 ****  ****    0 ROOT


##########                                Name:    ZINC000151850193
##########                DOCK_Rotatable_Bonds:                  11
##########                         Heavy_Atoms:                  23
##########                    Molecular_Weight:             328.452
##########                DOCK_Rotatable_Bonds:                  11
##########                       Formal_Charge:            0.039999
##########                     HBond_Acceptors:                   6
##########                        HBond_Donors:                   2
##########                         Heavy_Atoms:                  23
##########                          Grid_Score:          -30.764757
##########                     Grid_vdw_energy:          -29.459860
##########                      Grid_es_energy:           -1.304897
##########           Internal_energy_repulsive:           31.498316

@<TRIPOS>MOLECULE
ZINC000151850193
 55 55 1 0 0
SMALL
USER_CHARGES


@<TRIPOS>ATOM
      1 C1         -9.6722   -0.0558   61.4653 C.3     1  ZINC000151850193   -0.1500
      2 C2        -10.7294   -1.1580   61.5563 C.3     1  ZINC000151850193   -0.1000
      3 C3        -11.5265   -1.2091   60.2513 C.3     1  ZINC000151850193   -0.0800
      4 C4        -10.6600   -1.5564   59.0391 C.3     1  ZINC000151850193   -0.1000
      5 C5         -9.9917   -2.9145   59.2622 C.3     1  ZINC000151850193   -0.1500
      6 C6        -12.8151   -2.0427   60.3488 C.3     1  ZINC000151850193    0.1400
      7 H7        -12.7812   -2.8102   61.1220 H       1  ZINC000151850193    0.1000
      8 N8        -13.2813   -2.5555   59.0582 N.am    1  ZINC000151850193   -0.7000
      9 C9        -14.4586   -3.2068   58.9773 C.2     1  ZINC000151850193    0.5200
     10 O10       -15.1311   -3.3696   59.9734 O.2     1  ZINC000151850193   -0.5300
     11 C11       -14.9390   -3.7329   57.6493 C.3     1  ZINC000151850193   -0.1500
     12 C12       -14.1092   -4.9563   57.2550 C.3     1  ZINC000151850193    0.1500
     13 N13       -13.5430   -4.7524   55.9194 N.am    1  ZINC000151850193   -0.7100
     14 C14       -12.2545   -4.3809   55.7832 C.2     1  ZINC000151850193    0.6500
     15 O15       -11.5631   -4.2137   56.7683 O.2     1  ZINC000151850193   -0.5600
     16 O16       -11.7337   -4.1951   54.5557 O.3     1  ZINC000151850193   -0.3700
     17 C17       -11.9996   -2.9205   53.9129 C.3     1  ZINC000151850193    0.1400
     18 C18       -10.9100   -2.6341   52.8777 C.3     1  ZINC000151850193   -0.1800
     19 C19       -13.3617   -2.9742   53.2180 C.3     1  ZINC000151850193   -0.1400
     20 C20       -12.0076   -1.8102   54.9656 C.3     1  ZINC000151850193   -0.1800
     21 C21       -13.5231   -0.7518   60.7930 C.3     1  ZINC000151850193   -0.1700
     22 C22       -12.4293    0.0164   60.0325 C.3     1  ZINC000151850193    0.0700
     23 H23       -12.0838    0.9113   60.5504 H       1  ZINC000151850193    0.0800
     24 O24       -12.7476    0.2574   58.6604 O.3     1  ZINC000151850193   -0.3700
     25 C25       -12.1994    1.4705   58.1409 C.3     1  ZINC000151850193    0.0300
     26 H26        -8.9784   -0.2837   60.6561 H       1  ZINC000151850193    0.0600
     27 H27       -10.1592    0.8993   61.2683 H       1  ZINC000151850193    0.0600
     28 H28        -9.1259    0.0023   62.4068 H       1  ZINC000151850193    0.0600
     29 H29       -10.2401   -2.1181   61.7211 H       1  ZINC000151850193    0.0700
     30 H30       -11.4040   -0.9469   62.3860 H       1  ZINC000151850193    0.0700
     31 H31       -11.2845   -1.6010   58.1468 H       1  ZINC000151850193    0.0700
     32 H32        -9.8943   -0.7917   58.9089 H       1  ZINC000151850193    0.0700
     33 H33        -9.3112   -2.8495   60.1113 H       1  ZINC000151850193    0.0500
     34 H34       -10.7548   -3.6660   59.4649 H       1  ZINC000151850193    0.0500
     35 H35        -9.4329   -3.1956   58.3696 H       1  ZINC000151850193    0.0500
     36 H36       -12.7429   -2.4263   58.2618 H       1  ZINC000151850193    0.4100
     37 H37       -15.9886   -4.0161   57.7291 H       1  ZINC000151850193    0.1000
     38 H38       -14.8283   -2.9586   56.8902 H       1  ZINC000151850193    0.1000
     39 H39       -13.3023   -5.0953   57.9745 H       1  ZINC000151850193    0.0800
     40 H40       -14.7463   -5.8407   57.2483 H       1  ZINC000151850193    0.0800
     41 H41       -14.0953   -4.8846   55.1330 H       1  ZINC000151850193    0.4100
     42 H42       -10.9044   -3.4251   52.1278 H       1  ZINC000151850193    0.0600
     43 H43       -11.1097   -1.6774   52.3953 H       1  ZINC000151850193    0.0700
     44 H44        -9.9396   -2.5959   53.3728 H       1  ZINC000151850193    0.0900
     45 H45       -14.1380   -3.1783   53.9554 H       1  ZINC000151850193    0.0700
     46 H46       -13.5614   -2.0175   52.7355 H       1  ZINC000151850193    0.0800
     47 H47       -13.3561   -3.7652   52.4681 H       1  ZINC000151850193    0.0700
     48 H48       -11.0372   -1.7720   55.4606 H       1  ZINC000151850193    0.0900
     49 H49       -12.2072   -0.8535   54.4831 H       1  ZINC000151850193    0.0700
     50 H50       -12.7839   -2.0143   55.7030 H       1  ZINC000151850193    0.0600
     51 H51       -14.5187   -0.6308   60.3661 H       1  ZINC000151850193    0.0800
     52 H52       -13.5010   -0.5904   61.8707 H       1  ZINC000151850193    0.1000
     53 H53       -12.5812    2.3161   58.7131 H       1  ZINC000151850193    0.0400
     54 H54       -11.1125    1.4406   58.2185 H       1  ZINC000151850193    0.0400
     55 H55       -12.4861    1.5803   57.0951 H       1  ZINC000151850193    0.0900
@<TRIPOS>BOND
     1     1     2    1
     2     1    26    1
     3     1    27    1
     4     1    28    1
     5     2     3    1
     6     2    29    1
     7     2    30    1
     8     3    22    1
     9     3     4    1
    10     3     6    1
    11     4     5    1
    12     4    31    1
    13     4    32    1
    14     5    33    1
    15     5    34    1
    16     5    35    1
    17     6     7    1
    18     6     8    1
    19     6    21    1
    20     8     9   am
    21     8    36    1
    22     9    10    2
    23     9    11    1
    24    11    12    1
    25    11    37    1
    26    11    38    1
    27    12    13    1
    28    12    39    1
    29    12    40    1
    30    13    14   am
    31    13    41    1
    32    14    15    2
    33    14    16    1
    34    16    17    1
    35    17    18    1
    36    17    19    1
    37    17    20    1
    38    18    42    1
    39    18    43    1
    40    18    44    1
    41    19    45    1
    42    19    46    1
    43    19    47    1
    44    20    48    1
    45    20    49    1
    46    20    50    1
    47    21    22    1
    48    21    51    1
    49    21    52    1
    50    22    23    1
    51    22    24    1
    52    24    25    1
    53    25    53    1
    54    25    54    1
    55    25    55    1
@<TRIPOS>SUBSTRUCTURE
     1 ZINC000151850193        1 TEMP              0 ****  ****    0 ROOT


##########                                Name:    ZINC000566738344
##########                DOCK_Rotatable_Bonds:                   5
##########                         Heavy_Atoms:                  23
##########                    Molecular_Weight:             352.478
##########                DOCK_Rotatable_Bonds:                   5
##########                       Formal_Charge:           0.0100005
##########                     HBond_Acceptors:                   7
##########                        HBond_Donors:                   0
##########                         Heavy_Atoms:                  23
##########                          Grid_Score:          -30.758820
##########                     Grid_vdw_energy:          -29.798737
##########                      Grid_es_energy:           -0.960083
##########           Internal_energy_repulsive:           27.093882

@<TRIPOS>MOLECULE
ZINC000566738344
 43 44 1 0 0
SMALL
USER_CHARGES


@<TRIPOS>ATOM
      1 C1        -10.2097    1.8199   63.8480 C.3     1  ZINC000566738344   -0.1300
      2 C2         -9.7467    0.7422   62.9018 C.ar    1  ZINC000566738344   -0.0100
      3 C3        -10.1150    0.7844   61.5767 C.ar    1  ZINC000566738344   -0.1000
      4 C4         -9.6880   -0.2115   60.7018 C.ar    1  ZINC000566738344   -0.0500
      5 S5        -10.1623   -0.1543   59.0058 S.3     1  ZINC000566738344   -0.0300
      6 C6        -10.8727   -1.7996   58.7250 C.3     1  ZINC000566738344   -0.1200
      7 H7        -10.1373   -2.5618   58.9825 H       1  ZINC000566738344    0.1200
      8 C8        -12.1159   -1.9744   59.5993 C.3     1  ZINC000566738344   -0.1300
      9 C9        -11.2550   -1.9407   57.2741 C.2     1  ZINC000566738344    0.5200
     10 O10       -11.3290   -0.9573   56.5681 O.2     1  ZINC000566738344   -0.5000
     11 N11       -11.5147   -3.1596   56.7610 N.am    1  ZINC000566738344   -0.6000
     12 C12       -11.4272   -4.3472   57.6142 C.3     1  ZINC000566738344    0.0600
     13 C13       -11.8847   -3.2969   55.3502 C.3     1  ZINC000566738344    0.1500
     14 H14       -11.9914   -4.3526   55.1005 H       1  ZINC000566738344    0.1300
     15 C15       -13.2143   -2.5670   55.0907 C.3     1  ZINC000566738344   -0.1300
     16 C16       -13.3720   -2.4666   53.5515 C.3     1  ZINC000566738344   -0.5900
     17 S17       -11.6827   -2.0099   53.0065 S.o2    1  ZINC000566738344    2.4000
     18 O18       -11.3352   -2.7738   51.8598 O.2     1  ZINC000566738344   -0.9300
     19 O19       -11.5643   -0.5941   52.9762 O.2     1  ZINC000566738344   -0.9300
     20 C20       -10.7944   -2.6623   54.4642 C.3     1  ZINC000566738344   -0.6200
     21 C21        -8.8867   -1.2521   61.1643 C.ar    1  ZINC000566738344   -0.1400
     22 C22        -8.5149   -1.2999   62.4885 C.ar    1  ZINC000566738344   -0.0400
     23 C23        -8.9376   -0.2988   63.3683 C.ar    1  ZINC000566738344   -0.0400
     24 C24        -8.5525   -0.3455   64.7468 C.1     1  ZINC000566738344    0.2500
     25 N25        -8.2470   -0.3826   65.8404 N.1     1  ZINC000566738344   -0.4100
     26 H26        -9.4834    2.6326   63.8563 H       1  ZINC000566738344    0.0800
     27 H27       -11.1769    2.2005   63.5198 H       1  ZINC000566738344    0.0800
     28 H28       -10.3035    1.4062   64.8520 H       1  ZINC000566738344    0.0700
     29 H29       -10.7362    1.5903   61.2149 H       1  ZINC000566738344    0.1400
     30 H30       -12.8852   -1.2702   59.2822 H       1  ZINC000566738344    0.0800
     31 H31       -12.4915   -2.9927   59.4976 H       1  ZINC000566738344    0.0800
     32 H32       -11.8571   -1.7850   60.6410 H       1  ZINC000566738344    0.0900
     33 H33       -12.3967   -4.5357   58.0754 H       1  ZINC000566738344    0.0700
     34 H34       -11.1386   -5.2077   57.0106 H       1  ZINC000566738344    0.0800
     35 H35       -10.6810   -4.1821   58.3915 H       1  ZINC000566738344    0.0800
     36 H36       -14.0417   -3.1364   55.5142 H       1  ZINC000566738344    0.1100
     37 H37       -13.1842   -1.5694   55.5287 H       1  ZINC000566738344    0.0900
     38 H38       -13.6684   -3.4268   53.1294 H       1  ZINC000566738344    0.1400
     39 H39       -14.0878   -1.6885   53.2858 H       1  ZINC000566738344    0.1400
     40 H40       -10.2954   -1.8528   54.9969 H       1  ZINC000566738344    0.1400
     41 H41       -10.0709   -3.4184   54.1593 H       1  ZINC000566738344    0.1500
     42 H42        -8.5569   -2.0227   60.4832 H       1  ZINC000566738344    0.1200
     43 H43        -7.8937   -2.1075   62.8467 H       1  ZINC000566738344    0.1400
@<TRIPOS>BOND
     1     1     2    1
     2     1    26    1
     3     1    27    1
     4     1    28    1
     5     2    23   ar
     6     2     3   ar
     7     3     4   ar
     8     3    29    1
     9     4     5    1
    10     4    21   ar
    11     5     6    1
    12     6     7    1
    13     6     8    1
    14     6     9    1
    15     8    30    1
    16     8    31    1
    17     8    32    1
    18     9    10    2
    19     9    11   am
    20    11    12    1
    21    11    13    1
    22    12    33    1
    23    12    34    1
    24    12    35    1
    25    13    14    1
    26    13    20    1
    27    13    15    1
    28    15    16    1
    29    15    36    1
    30    15    37    1
    31    16    17    1
    32    16    38    1
    33    16    39    1
    34    17    18    2
    35    17    19    2
    36    17    20    1
    37    20    40    1
    38    20    41    1
    39    21    22   ar
    40    21    42    1
    41    22    23   ar
    42    22    43    1
    43    23    24    1
    44    24    25    3
@<TRIPOS>SUBSTRUCTURE
     1 ZINC000566738344        1 TEMP              0 ****  ****    0 ROOT


##########                                Name:    ZINC000521663393
##########                DOCK_Rotatable_Bonds:                   5
##########                         Heavy_Atoms:                  27
##########                    Molecular_Weight:              386.49
##########                DOCK_Rotatable_Bonds:                   5
##########                       Formal_Charge:               -0.02
##########                     HBond_Acceptors:                   6
##########                        HBond_Donors:                   1
##########                         Heavy_Atoms:                  27
##########                          Grid_Score:          -30.748480
##########                     Grid_vdw_energy:          -31.632994
##########                      Grid_es_energy:            0.884513
##########           Internal_energy_repulsive:           13.488719

@<TRIPOS>MOLECULE
ZINC000521663393
 50 53 1 0 0
SMALL
USER_CHARGES


@<TRIPOS>ATOM
      1 C1         -9.1716   -4.1904   58.8661 C.3     1  ZINC000521663393   -0.1500
      2 C2         -9.3360   -2.7259   59.2777 C.3     1  ZINC000521663393    0.0800
      3 H3         -9.0029   -2.0624   58.4797 H       1  ZINC000521663393    0.0900
      4 O4         -8.6218   -2.4560   60.4959 O.3     1  ZINC000521663393   -0.2900
      5 C5         -9.3053   -1.5281   61.2204 C.ar    1  ZINC000521663393    0.1400
      6 C6         -8.8688   -0.7053   62.2550 C.ar    1  ZINC000521663393   -0.1800
      7 C7         -9.7470    0.1696   62.8656 C.ar    1  ZINC000521663393    0.1400
      8 F8         -9.3157    0.9643   63.8694 F       1  ZINC000521663393   -0.1300
      9 C9        -11.0672    0.2355   62.4531 C.ar    1  ZINC000521663393   -0.1800
     10 C10       -11.5057   -0.5765   61.4223 C.ar    1  ZINC000521663393   -0.0200
     11 C11       -10.6305   -1.4463   60.8108 C.ar    1  ZINC000521663393   -0.2000
     12 C12       -10.8041   -2.4263   59.6627 C.3     1  ZINC000521663393    0.1700
     13 H13       -11.3122   -3.3310   59.9963 H       1  ZINC000521663393    0.1200
     14 N14       -11.5245   -1.8050   58.5486 N.am    1  ZINC000521663393   -0.7200
     15 C15       -12.2203   -2.5711   57.6851 C.2     1  ZINC000521663393    0.5300
     16 O16       -12.2513   -3.7746   57.8313 O.2     1  ZINC000521663393   -0.5000
     17 C17       -12.9598   -1.9321   56.5380 C.3     1  ZINC000521663393    0.1200
     18 H18       -12.7279   -0.8676   56.5041 H       1  ZINC000521663393    0.0700
     19 C19       -12.5368   -2.5797   55.2446 C.ar    1  ZINC000521663393   -0.0900
     20 C20       -12.9867   -3.8477   54.9270 C.ar    1  ZINC000521663393   -0.0900
     21 C21       -12.5987   -4.4417   53.7407 C.ar    1  ZINC000521663393   -0.1200
     22 C22       -11.7612   -3.7678   52.8717 C.ar    1  ZINC000521663393   -0.1100
     23 C23       -11.3121   -2.4995   53.1888 C.ar    1  ZINC000521663393   -0.1200
     24 C24       -11.7035   -1.9037   54.3732 C.ar    1  ZINC000521663393   -0.1100
     25 N25       -14.4055   -2.1126   56.7260 N.3     1  ZINC000521663393   -0.5300
     26 C26       -15.1595   -1.4708   55.6468 C.3     1  ZINC000521663393    0.0500
     27 C27       -16.5870   -2.0269   55.6068 C.3     1  ZINC000521663393   -0.0700
     28 S28       -17.4055   -1.6300   57.1819 S.3     1  ZINC000521663393   -0.2700
     29 C29       -16.1971   -2.2397   58.3972 C.3     1  ZINC000521663393   -0.0700
     30 C30       -14.8233   -1.6543   58.0530 C.3     1  ZINC000521663393    0.0600
     31 H31        -9.7761   -4.3890   57.9811 H       1  ZINC000521663393    0.0800
     32 H32        -8.1236   -4.3895   58.6426 H       1  ZINC000521663393    0.0800
     33 H33        -9.4982   -4.8358   59.6815 H       1  ZINC000521663393    0.0700
     34 H34        -7.8404   -0.7511   62.5817 H       1  ZINC000521663393    0.1400
     35 H35       -11.7521    0.9180   62.9344 H       1  ZINC000521663393    0.1400
     36 H36       -12.5344   -0.5281   61.0971 H       1  ZINC000521663393    0.1300
     37 H37       -11.5006   -0.8423   58.4322 H       1  ZINC000521663393    0.4000
     38 H38       -13.6410   -4.3742   55.6060 H       1  ZINC000521663393    0.1300
     39 H39       -12.9496   -5.4327   53.4930 H       1  ZINC000521663393    0.1300
     40 H40       -11.4576   -4.2322   51.9452 H       1  ZINC000521663393    0.1200
     41 H41       -10.6575   -1.9730   52.5101 H       1  ZINC000521663393    0.1300
     42 H42       -11.3526   -0.9127   54.6210 H       1  ZINC000521663393    0.1200
     43 H43       -15.1945   -0.3951   55.8194 H       1  ZINC000521663393    0.0500
     44 H44       -14.6672   -1.6677   54.6943 H       1  ZINC000521663393    0.1000
     45 H45       -17.1354   -1.5692   54.7836 H       1  ZINC000521663393    0.1100
     46 H46       -16.5550   -3.1082   55.4729 H       1  ZINC000521663393    0.0900
     47 H47       -16.4909   -1.9210   59.3973 H       1  ZINC000521663393    0.1100
     48 H48       -16.1525   -3.3280   58.3549 H       1  ZINC000521663393    0.1000
     49 H49       -14.0945   -1.9804   58.7949 H       1  ZINC000521663393    0.0800
     50 H50       -14.8818   -0.5660   58.0585 H       1  ZINC000521663393    0.0500
@<TRIPOS>BOND
     1     1     2    1
     2     1    31    1
     3     1    32    1
     4     1    33    1
     5     2     3    1
     6     2    12    1
     7     2     4    1
     8     4     5    1
     9     5    11   ar
    10     5     6   ar
    11     6     7   ar
    12     6    34    1
    13     7     8    1
    14     7     9   ar
    15     9    10   ar
    16     9    35    1
    17    10    11   ar
    18    10    36    1
    19    11    12    1
    20    12    13    1
    21    12    14    1
    22    14    15   am
    23    14    37    1
    24    15    16    2
    25    15    17    1
    26    17    18    1
    27    17    19    1
    28    17    25    1
    29    19    24   ar
    30    19    20   ar
    31    20    21   ar
    32    20    38    1
    33    21    22   ar
    34    21    39    1
    35    22    23   ar
    36    22    40    1
    37    23    24   ar
    38    23    41    1
    39    24    42    1
    40    25    30    1
    41    25    26    1
    42    26    27    1
    43    26    43    1
    44    26    44    1
    45    27    28    1
    46    27    45    1
    47    27    46    1
    48    28    29    1
    49    29    30    1
    50    29    47    1
    51    29    48    1
    52    30    49    1
    53    30    50    1
@<TRIPOS>SUBSTRUCTURE
     1 ZINC000521663393        1 TEMP              0 ****  ****    0 ROOT


##########                                Name:    ZINC001282645012
##########                DOCK_Rotatable_Bonds:                   9
##########                         Heavy_Atoms:                  27
##########                    Molecular_Weight:             372.511
##########                DOCK_Rotatable_Bonds:                   9
##########                       Formal_Charge:          -0.0200004
##########                     HBond_Acceptors:                   6
##########                        HBond_Donors:                   1
##########                         Heavy_Atoms:                  27
##########                          Grid_Score:          -30.745419
##########                     Grid_vdw_energy:          -28.032946
##########                      Grid_es_energy:           -2.712472
##########           Internal_energy_repulsive:          105.761681

@<TRIPOS>MOLECULE
ZINC001282645012
 59 61 1 0 0
SMALL
USER_CHARGES


@<TRIPOS>ATOM
      1 C1         -9.2357   -0.4322   57.6548 C.2     1  ZINC001282645012   -0.1900
      2 C2         -8.8541   -1.1586   58.6760 C.2     1  ZINC001282645012   -0.1300
      3 C3         -9.7719   -2.2160   59.2334 C.3     1  ZINC001282645012   -0.0500
      4 C4         -9.9841   -3.3108   58.1859 C.3     1  ZINC001282645012   -0.1500
      5 C5         -9.1444   -2.8257   60.4886 C.3     1  ZINC001282645012   -0.1400
      6 C6        -11.0986   -1.5944   59.5863 C.2     1  ZINC001282645012    0.5500
      7 O7        -12.1253   -2.0643   59.1437 O.2     1  ZINC001282645012   -0.5300
      8 N8        -11.1441   -0.5162   60.3937 N.am    1  ZINC001282645012   -0.6300
      9 C9        -12.3106    0.2862   60.8965 C.3     1  ZINC001282645012    0.1200
     10 H10       -13.2937   -0.0406   60.5578 H       1  ZINC001282645012    0.1300
     11 C11       -11.8935    1.7237   60.4627 C.3     1  ZINC001282645012   -0.1300
     12 C12       -10.3495    1.7014   60.5795 C.3     1  ZINC001282645012   -0.1300
     13 C13       -10.0445    0.2494   61.0733 C.3     1  ZINC001282645012    0.1200
     14 H14        -9.0317   -0.1079   60.8867 H       1  ZINC001282645012    0.1200
     15 C15       -10.5030    0.2233   62.5625 C.3     1  ZINC001282645012    0.1300
     16 H16       -10.1670   -0.6908   63.0519 H       1  ZINC001282645012    0.1000
     17 N17       -10.0053    1.4018   63.2764 N.am    1  ZINC001282645012   -0.7100
     18 C18        -9.4905    1.2717   64.5151 C.2     1  ZINC001282645012    0.5100
     19 O19        -9.4405    0.1792   65.0394 O.2     1  ZINC001282645012   -0.5100
     20 C20        -8.9768    2.4838   65.2488 C.3     1  ZINC001282645012    0.1200
     21 H21        -8.8187    3.2971   64.5406 H       1  ZINC001282645012    0.1300
     22 C22       -10.0007    2.9151   66.3007 C.3     1  ZINC001282645012   -0.1100
     23 C23        -9.5896    4.2665   66.8885 C.3     1  ZINC001282645012   -0.1000
     24 C24       -10.6141    4.6986   67.9394 C.3     1  ZINC001282645012   -0.1500
     25 C25        -8.2116    4.1408   67.5412 C.3     1  ZINC001282645012   -0.1500
     26 N26        -7.7095    2.1557   65.9065 N.pl3   1  ZINC001282645012   -0.4500
     27 C27        -6.4946    2.7381   65.6651 C.2     1  ZINC001282645012   -0.0600
     28 C28        -5.6070    2.1416   66.4836 C.2     1  ZINC001282645012   -0.0200
     29 N29        -6.2621    1.2199   67.2049 N.2     1  ZINC001282645012   -0.4900
     30 C30        -7.5229    1.2263   66.8682 C.2     1  ZINC001282645012    0.1900
     31 C31       -12.0746    0.2239   62.4357 C.3     1  ZINC001282645012   -0.1400
     32 H32       -10.2080   -0.5911   57.2123 H       1  ZINC001282645012    0.1000
     33 H33        -8.5798    0.3286   57.2581 H       1  ZINC001282645012    0.1000
     34 H34        -7.8818   -0.9997   59.1185 H       1  ZINC001282645012    0.1100
     35 H35        -9.0245   -3.7605   57.9307 H       1  ZINC001282645012    0.0700
     36 H36       -10.6479   -4.0757   58.5892 H       1  ZINC001282645012    0.0700
     37 H37       -10.4311   -2.8765   57.2918 H       1  ZINC001282645012    0.0600
     38 H38        -8.9932   -2.0457   61.2348 H       1  ZINC001282645012    0.0600
     39 H39        -9.8083   -3.5906   60.8917 H       1  ZINC001282645012    0.0700
     40 H40        -8.1849   -3.2753   60.2334 H       1  ZINC001282645012    0.0700
     41 H41       -12.1979    1.9180   59.4342 H       1  ZINC001282645012    0.0800
     42 H42       -12.3188    2.4669   61.1370 H       1  ZINC001282645012    0.0800
     43 H43        -9.8884    1.8846   59.6090 H       1  ZINC001282645012    0.0700
     44 H44       -10.0093    2.4335   61.3117 H       1  ZINC001282645012    0.0800
     45 H45       -10.0464    2.2757   62.8576 H       1  ZINC001282645012    0.4000
     46 H46       -10.9828    3.0043   65.8365 H       1  ZINC001282645012    0.0900
     47 H47       -10.0408    2.1702   67.0955 H       1  ZINC001282645012    0.0800
     48 H48        -9.5486    5.0111   66.0935 H       1  ZINC001282645012    0.0700
     49 H49       -10.6553    3.9539   68.7344 H       1  ZINC001282645012    0.0600
     50 H50       -10.3213    5.6613   68.3581 H       1  ZINC001282645012    0.0600
     51 H51       -11.5959    4.7880   67.4744 H       1  ZINC001282645012    0.0500
     52 H52        -7.4668    3.9169   66.7773 H       1  ZINC001282645012    0.0600
     53 H53        -7.9559    5.0789   68.0338 H       1  ZINC001282645012    0.0600
     54 H54        -8.2301    3.3372   68.2772 H       1  ZINC001282645012    0.0600
     55 H55        -6.2875    3.5248   64.9547 H       1  ZINC001282645012    0.1700
     56 H56        -4.5525    2.3658   66.5479 H       1  ZINC001282645012    0.1700
     57 H57        -8.2889    0.5891   67.2849 H       1  ZINC001282645012    0.2000
     58 H58       -12.4974    1.1121   62.9052 H       1  ZINC001282645012    0.0900
     59 H59       -12.4956   -0.6807   62.8744 H       1  ZINC001282645012    0.0900
@<TRIPOS>BOND
     1     1     2    2
     2     1    32    1
     3     1    33    1
     4     2     3    1
     5     2    34    1
     6     3     4    1
     7     3     5    1
     8     3     6    1
     9     4    35    1
    10     4    36    1
    11     4    37    1
    12     5    38    1
    13     5    39    1
    14     5    40    1
    15     6     7    2
    16     6     8   am
    17     8    13    1
    18     8     9    1
    19     9    10    1
    20     9    31    1
    21     9    11    1
    22    11    12    1
    23    11    41    1
    24    11    42    1
    25    12    13    1
    26    12    43    1
    27    12    44    1
    28    13    14    1
    29    13    15    1
    30    15    16    1
    31    15    17    1
    32    15    31    1
    33    17    18   am
    34    17    45    1
    35    18    19    2
    36    18    20    1
    37    20    21    1
    38    20    22    1
    39    20    26    1
    40    22    23    1
    41    22    46    1
    42    22    47    1
    43    23    24    1
    44    23    25    1
    45    23    48    1
    46    24    49    1
    47    24    50    1
    48    24    51    1
    49    25    52    1
    50    25    53    1
    51    25    54    1
    52    26    30    1
    53    26    27    1
    54    27    28    2
    55    27    55    1
    56    28    29    1
    57    28    56    1
    58    29    30    2
    59    30    57    1
    60    31    58    1
    61    31    59    1
@<TRIPOS>SUBSTRUCTURE
     1 ZINC001282645012        1 TEMP              0 ****  ****    0 ROOT


##########                                Name:    ZINC001248546333
##########                DOCK_Rotatable_Bonds:                   6
##########                         Heavy_Atoms:                  27
##########                    Molecular_Weight:             378.397
##########                DOCK_Rotatable_Bonds:                   6
##########                       Formal_Charge:         3.94881e-07
##########                     HBond_Acceptors:                   8
##########                        HBond_Donors:                   1
##########                         Heavy_Atoms:                  27
##########                          Grid_Score:          -30.734375
##########                     Grid_vdw_energy:          -30.064781
##########                      Grid_es_energy:           -0.669595
##########           Internal_energy_repulsive:           12.847287

@<TRIPOS>MOLECULE
ZINC001248546333
 48 50 1 0 0
SMALL
USER_CHARGES


@<TRIPOS>ATOM
      1 C1        -13.8218   -0.6794   48.3697 C.3     1  ZINC001248546333   -0.1200
      2 C2        -14.3822   -0.7355   49.7676 C.ar    1  ZINC001248546333   -0.0800
      3 C3        -15.5074    0.0014   50.0900 C.ar    1  ZINC001248546333   -0.1200
      4 C4        -16.0282   -0.0447   51.3712 C.ar    1  ZINC001248546333   -0.1100
      5 C5        -15.4274   -0.8273   52.3354 C.ar    1  ZINC001248546333   -0.1100
      6 C6        -14.2922   -1.5735   52.0164 C.ar    1  ZINC001248546333   -0.0600
      7 C7        -13.6435   -2.4143   53.0447 C.2     1  ZINC001248546333   -0.0600
      8 C8        -12.3410   -2.5531   52.9886 C.2     1  ZINC001248546333   -0.1700
      9 C9        -11.5549   -3.3915   53.9580 C.3     1  ZINC001248546333    0.1500
     10 N10       -12.4254   -3.7781   55.0776 N.am    1  ZINC001248546333   -0.6300
     11 C11       -11.9906   -3.7300   56.3524 C.2     1  ZINC001248546333    0.7200
     12 O12       -12.7314   -4.0553   57.2599 O.2     1  ZINC001248546333   -0.5800
     13 N13       -10.7348   -3.3211   56.6212 N.am    1  ZINC001248546333   -0.7500
     14 C14       -10.2623   -3.2689   58.0069 C.3     1  ZINC001248546333    0.2000
     15 C15        -9.7922   -1.8729   58.3250 C.2     1  ZINC001248546333    0.0700
     16 C16        -9.7345   -0.8339   57.4599 C.2     1  ZINC001248546333   -0.2000
     17 C17        -9.2441    0.2771   58.1538 C.2     1  ZINC001248546333   -0.0200
     18 C18        -9.0186    1.6507   57.5763 C.3     1  ZINC001248546333    0.5600
     19 F19        -9.4180    1.6641   56.2356 F       1  ZINC001248546333   -0.1700
     20 F20        -9.7680    2.5878   58.2956 F       1  ZINC001248546333   -0.1700
     21 F21        -7.6605    1.9753   57.6615 F       1  ZINC001248546333   -0.1600
     22 N22        -9.0156   -0.0818   59.3910 N.2     1  ZINC001248546333   -0.2200
     23 N23        -9.3589   -1.4334   59.5251 N.pl3   1  ZINC001248546333   -0.3400
     24 C24        -9.2570   -2.2311   60.7496 C.3     1  ZINC001248546333    0.0900
     25 C25       -13.7918   -4.2207   54.7503 C.3     1  ZINC001248546333    0.1300
     26 C26       -14.5188   -3.0466   54.0856 C.3     1  ZINC001248546333   -0.1000
     27 C27       -13.7750   -1.5265   50.7215 C.ar    1  ZINC001248546333   -0.1100
     28 H28       -14.2865   -1.4547   47.7606 H       1  ZINC001248546333    0.0700
     29 H29       -14.0292    0.2980   47.9341 H       1  ZINC001248546333    0.0700
     30 H30       -12.7443   -0.8410   48.4035 H       1  ZINC001248546333    0.0700
     31 H31       -15.9814    0.6157   49.3388 H       1  ZINC001248546333    0.1200
     32 H32       -16.9065    0.5337   51.6168 H       1  ZINC001248546333    0.1200
     33 H33       -15.8347   -0.8621   53.3351 H       1  ZINC001248546333    0.1200
     34 H34       -11.8047   -2.0384   52.2051 H       1  ZINC001248546333    0.1200
     35 H35       -11.1910   -4.2865   53.4536 H       1  ZINC001248546333    0.0800
     36 H36       -10.7098   -2.8158   54.3355 H       1  ZINC001248546333    0.0800
     37 H37       -10.1438   -3.0616   55.8971 H       1  ZINC001248546333    0.4000
     38 H38       -11.0766   -3.5400   58.6788 H       1  ZINC001248546333    0.1000
     39 H39        -9.4366   -3.9686   58.1359 H       1  ZINC001248546333    0.0900
     40 H40       -10.0168   -0.8584   56.4178 H       1  ZINC001248546333    0.1700
     41 H41       -10.1900   -2.1598   61.3085 H       1  ZINC001248546333    0.0900
     42 H42        -9.0676   -3.2727   60.4899 H       1  ZINC001248546333    0.1000
     43 H43        -8.4373   -1.8545   61.3613 H       1  ZINC001248546333    0.1000
     44 H44       -13.7507   -5.0683   54.0662 H       1  ZINC001248546333    0.0700
     45 H45       -14.3148   -4.5075   55.6626 H       1  ZINC001248546333    0.1000
     46 H46       -14.7786   -2.3077   54.8438 H       1  ZINC001248546333    0.0800
     47 H47       -15.4311   -3.4091   53.6119 H       1  ZINC001248546333    0.0900
     48 H48       -12.8966   -2.1017   50.4683 H       1  ZINC001248546333    0.1200
@<TRIPOS>BOND
     1     1     2    1
     2     1    28    1
     3     1    29    1
     4     1    30    1
     5     2    27   ar
     6     2     3   ar
     7     3     4   ar
     8     3    31    1
     9     4     5   ar
    10     4    32    1
    11     5     6   ar
    12     5    33    1
    13     6     7    1
    14     6    27   ar
    15     7    26    1
    16     7     8    2
    17     8     9    1
    18     8    34    1
    19     9    10    1
    20     9    35    1
    21     9    36    1
    22    10    11   am
    23    10    25    1
    24    11    12    2
    25    11    13   am
    26    13    14    1
    27    13    37    1
    28    14    15    1
    29    14    38    1
    30    14    39    1
    31    15    23    1
    32    15    16    2
    33    16    17    1
    34    16    40    1
    35    17    18    1
    36    17    22    2
    37    18    19    1
    38    18    20    1
    39    18    21    1
    40    22    23    1
    41    23    24    1
    42    24    41    1
    43    24    42    1
    44    24    43    1
    45    25    26    1
    46    25    44    1
    47    25    45    1
    48    26    46    1
    49    26    47    1
    50    27    48    1
@<TRIPOS>SUBSTRUCTURE
     1 ZINC001248546333        1 TEMP              0 ****  ****    0 ROOT


##########                                Name:    ZINC000098105561
##########                DOCK_Rotatable_Bonds:                   5
##########                         Heavy_Atoms:                  25
##########                    Molecular_Weight:             368.336
##########                DOCK_Rotatable_Bonds:                   5
##########                       Formal_Charge:         2.98023e-08
##########                     HBond_Acceptors:                   9
##########                        HBond_Donors:                   0
##########                         Heavy_Atoms:                  25
##########                          Grid_Score:          -30.712799
##########                     Grid_vdw_energy:          -30.330711
##########                      Grid_es_energy:           -0.382087
##########           Internal_energy_repulsive:            8.701116

@<TRIPOS>MOLECULE
ZINC000098105561
 36 38 1 0 0
SMALL
USER_CHARGES


@<TRIPOS>ATOM
      1 C1        -14.7037   -1.6057   59.3884 C.3     1  ZINC000098105561   -0.0800
      2 C2        -14.3400   -2.7253   58.4477 C.2     1  ZINC000098105561    0.0900
      3 C3        -14.7650   -3.9792   58.6199 C.2     1  ZINC000098105561   -0.2700
      4 S4        -14.1163   -4.9606   57.3085 S.3     1  ZINC000098105561    0.1600
      5 C5        -13.3348   -3.5880   56.6542 C.2     1  ZINC000098105561    0.2500
      6 N6        -12.5560   -3.5889   55.5053 N.am    1  ZINC000098105561   -0.5200
      7 C7        -13.1745   -3.8396   54.2012 C.3     1  ZINC000098105561    0.0500
      8 C8        -13.5276   -2.5060   53.5396 C.3     1  ZINC000098105561    0.4400
      9 F9        -12.3531   -1.8534   53.1495 F       1  ZINC000098105561   -0.1700
     10 F10       -14.3263   -2.7404   52.4150 F       1  ZINC000098105561   -0.1700
     11 F11       -14.2263   -1.7048   54.4489 F       1  ZINC000098105561   -0.1700
     12 C12       -11.2305   -3.3593   55.5895 C.2     1  ZINC000098105561    0.5800
     13 O13       -10.5487   -3.3601   54.5837 O.2     1  ZINC000098105561   -0.4100
     14 C14       -10.6051   -3.1060   56.9079 C.2     1  ZINC000098105561    0.0800
     15 C15       -10.2983   -4.1662   57.6956 C.2     1  ZINC000098105561   -0.2000
     16 C16        -9.6919   -3.9037   59.0117 C.2     1  ZINC000098105561    0.4200
     17 O17        -9.1855   -4.7896   59.6775 O.2     1  ZINC000098105561   -0.4300
     18 C18        -9.7339   -2.5024   59.4763 C.ar    1  ZINC000098105561   -0.2200
     19 C19        -9.4321   -2.1625   60.7933 C.ar    1  ZINC000098105561   -0.0300
     20 C20        -9.4904   -0.8422   61.1836 C.ar    1  ZINC000098105561   -0.1400
     21 C21        -9.8479    0.1407   60.2717 C.ar    1  ZINC000098105561   -0.0500
     22 C22       -10.1464   -0.1830   58.9658 C.ar    1  ZINC000098105561   -0.1400
     23 C23       -10.0906   -1.5086   58.5478 C.ar    1  ZINC000098105561    0.1400
     24 O24       -10.3612   -1.8389   57.2696 O.3     1  ZINC000098105561   -0.2300
     25 N25       -13.5803   -2.5448   57.3842 N.2     1  ZINC000098105561   -0.4600
     26 H26       -15.6270   -1.1340   59.0521 H       1  ZINC000098105561    0.0800
     27 H27       -14.8450   -2.0060   60.3924 H       1  ZINC000098105561    0.0800
     28 H28       -13.9023   -0.8670   59.4013 H       1  ZINC000098105561    0.0800
     29 H29       -15.3958   -4.3305   59.4230 H       1  ZINC000098105561    0.1900
     30 H30       -12.4765   -4.3862   53.5671 H       1  ZINC000098105561    0.1700
     31 H31       -14.0811   -4.4294   54.3364 H       1  ZINC000098105561    0.1400
     32 H32       -10.4937   -5.1761   57.3668 H       1  ZINC000098105561    0.1800
     33 H33        -9.1550   -2.9279   61.5030 H       1  ZINC000098105561    0.1400
     34 H34        -9.2574   -0.5716   62.2029 H       1  ZINC000098105561    0.1400
     35 H35        -9.8932    1.1719   60.5893 H       1  ZINC000098105561    0.1400
     36 H36       -10.4232    0.5924   58.2668 H       1  ZINC000098105561    0.1400
@<TRIPOS>BOND
     1     1     2    1
     2     1    26    1
     3     1    27    1
     4     1    28    1
     5     2    25    1
     6     2     3    2
     7     3     4    1
     8     3    29    1
     9     4     5    1
    10     5     6    1
    11     5    25    2
    12     6     7    1
    13     6    12   am
    14     7     8    1
    15     7    30    1
    16     7    31    1
    17     8     9    1
    18     8    10    1
    19     8    11    1
    20    12    13    2
    21    12    14    1
    22    14    24    1
    23    14    15    2
    24    15    16    1
    25    15    32    1
    26    16    17    2
    27    16    18    1
    28    18    23   ar
    29    18    19   ar
    30    19    20   ar
    31    19    33    1
    32    20    21   ar
    33    20    34    1
    34    21    22   ar
    35    21    35    1
    36    22    23   ar
    37    22    36    1
    38    23    24    1
@<TRIPOS>SUBSTRUCTURE
     1 ZINC000098105561        1 TEMP              0 ****  ****    0 ROOT


##########                                Name:    ZINC000464706598
##########                DOCK_Rotatable_Bonds:                   4
##########                         Heavy_Atoms:                  26
##########                    Molecular_Weight:             412.286
##########                DOCK_Rotatable_Bonds:                   4
##########                       Formal_Charge:           0.0100001
##########                     HBond_Acceptors:                   5
##########                        HBond_Donors:                   0
##########                         Heavy_Atoms:                  26
##########                          Grid_Score:          -30.709723
##########                     Grid_vdw_energy:          -30.849295
##########                      Grid_es_energy:            0.139572
##########           Internal_energy_repulsive:           58.621704

@<TRIPOS>MOLECULE
ZINC000464706598
 44 47 1 0 0
SMALL
USER_CHARGES


@<TRIPOS>ATOM
      1 O1        -11.2259   -2.2118   55.9243 O.2     1  ZINC000464706598   -0.5000
      2 C2        -11.7778   -2.2851   57.0055 C.2     1  ZINC000464706598    0.5900
      3 C3        -10.9815   -2.2298   58.2448 C.2     1  ZINC000464706598   -0.2800
      4 C4        -11.0028   -1.2218   59.1882 C.2     1  ZINC000464706598    0.1300
      5 N5        -10.1331   -1.5602   60.1574 N.pl3   1  ZINC000464706598   -0.3100
      6 C6         -9.8523   -0.8070   61.3057 C.ar    1  ZINC000464706598    0.1700
      7 C7        -10.5295    0.3822   61.5402 C.ar    1  ZINC000464706598   -0.1300
      8 C8        -10.2513    1.1222   62.6726 C.ar    1  ZINC000464706598   -0.0600
      9 C9         -9.2981    0.6798   63.5728 C.ar    1  ZINC000464706598   -0.1000
     10 Br10       -8.9192    1.6959   65.1219 Br      1  ZINC000464706598   -0.0400
     11 C11        -8.6222   -0.5052   63.3416 C.ar    1  ZINC000464706598   -0.0700
     12 C12        -8.9004   -1.2516   62.2134 C.ar    1  ZINC000464706598   -0.1100
     13 N13        -9.5569   -2.7915   59.8255 N.2     1  ZINC000464706598   -0.2800
     14 C14       -10.0581   -3.2014   58.6927 C.2     1  ZINC000464706598    0.0700
     15 N15       -13.1181   -2.4110   57.0707 N.am    1  ZINC000464706598   -0.6100
     16 C16       -13.8087   -2.4952   58.3674 C.3     1  ZINC000464706598    0.0400
     17 C17       -14.7437   -3.7097   58.3391 C.3     1  ZINC000464706598    0.0500
     18 O18       -15.5768   -3.6357   57.1798 O.3     1  ZINC000464706598   -0.3700
     19 C19       -14.8628   -3.6840   55.9421 C.3     1  ZINC000464706598    0.0500
     20 C20       -13.9345   -2.4624   55.8475 C.3     1  ZINC000464706598    0.1600
     21 H21       -14.5307   -1.5542   55.7591 H       1  ZINC000464706598    0.0900
     22 C22       -13.0367   -2.5991   54.6450 C.ar    1  ZINC000464706598   -0.0500
     23 C23       -12.5069   -3.8325   54.3145 C.ar    1  ZINC000464706598   -0.1000
     24 C24       -11.6833   -3.9579   53.2114 C.ar    1  ZINC000464706598   -0.1100
     25 C25       -11.3898   -2.8500   52.4385 C.ar    1  ZINC000464706598   -0.1200
     26 C26       -11.9203   -1.6169   52.7684 C.ar    1  ZINC000464706598   -0.1100
     27 C27       -12.7473   -1.4923   53.8690 C.ar    1  ZINC000464706598   -0.1000
     28 H28       -11.6057   -0.3265   59.1541 H       1  ZINC000464706598    0.1900
     29 H29       -11.2731    0.7284   60.8376 H       1  ZINC000464706598    0.1400
     30 H30       -10.7777    2.0473   62.8555 H       1  ZINC000464706598    0.1500
     31 H31        -7.8790   -0.8486   64.0459 H       1  ZINC000464706598    0.1500
     32 H32        -8.3728   -2.1766   62.0336 H       1  ZINC000464706598    0.1500
     33 H33        -9.8063   -4.1196   58.1830 H       1  ZINC000464706598    0.2100
     34 H34       -13.0767   -2.6139   59.1662 H       1  ZINC000464706598    0.1200
     35 H35       -14.3901   -1.5882   58.5331 H       1  ZINC000464706598    0.0800
     36 H36       -14.1517   -4.6242   58.3043 H       1  ZINC000464706598    0.0600
     37 H37       -15.3653   -3.7115   59.2345 H       1  ZINC000464706598    0.1100
     38 H38       -14.2711   -4.5984   55.8984 H       1  ZINC000464706598    0.0600
     39 H39       -15.5701   -3.6672   55.1129 H       1  ZINC000464706598    0.1100
     40 H40       -12.7362   -4.6980   54.9184 H       1  ZINC000464706598    0.1100
     41 H41       -11.2689   -4.9213   52.9537 H       1  ZINC000464706598    0.1200
     42 H42       -10.7458   -2.9479   51.5771 H       1  ZINC000464706598    0.1200
     43 H43       -11.6906   -0.7513   52.1647 H       1  ZINC000464706598    0.1200
     44 H44       -13.1618   -0.5288   54.1267 H       1  ZINC000464706598    0.1100
@<TRIPOS>BOND
     1     1     2    2
     2     2     3    1
     3     2    15   am
     4     3    14    1
     5     3     4    2
     6     4     5    1
     7     4    28    1
     8     5     6    1
     9     5    13    1
    10     6    12   ar
    11     6     7   ar
    12     7     8   ar
    13     7    29    1
    14     8     9   ar
    15     8    30    1
    16     9    10    1
    17     9    11   ar
    18    11    12   ar
    19    11    31    1
    20    12    32    1
    21    13    14    2
    22    14    33    1
    23    15    20    1
    24    15    16    1
    25    16    17    1
    26    16    34    1
    27    16    35    1
    28    17    18    1
    29    17    36    1
    30    17    37    1
    31    18    19    1
    32    19    20    1
    33    19    38    1
    34    19    39    1
    35    20    21    1
    36    20    22    1
    37    22    27   ar
    38    22    23   ar
    39    23    24   ar
    40    23    40    1
    41    24    25   ar
    42    24    41    1
    43    25    26   ar
    44    25    42    1
    45    26    27   ar
    46    26    43    1
    47    27    44    1
@<TRIPOS>SUBSTRUCTURE
     1 ZINC000464706598        1 TEMP              0 ****  ****    0 ROOT


##########                                Name:    ZINC000616491533
##########                DOCK_Rotatable_Bonds:                   4
##########                         Heavy_Atoms:                  27
##########                    Molecular_Weight:             375.418
##########                DOCK_Rotatable_Bonds:                   4
##########                       Formal_Charge:           0.0299996
##########                     HBond_Acceptors:                   7
##########                        HBond_Donors:                   0
##########                         Heavy_Atoms:                  27
##########                          Grid_Score:          -30.686802
##########                     Grid_vdw_energy:          -29.897905
##########                      Grid_es_energy:           -0.788898
##########           Internal_energy_repulsive:            8.551803

@<TRIPOS>MOLECULE
ZINC000616491533
 50 53 1 0 0
SMALL
USER_CHARGES


@<TRIPOS>ATOM
      1 C1        -14.7432   -4.2985   54.9260 C.3     1  ZINC000616491533   -0.1700
      2 C2        -13.3093   -4.7076   54.5832 C.3     1  ZINC000616491533    0.1400
      3 H3        -13.2095   -5.7916   54.6404 H       1  ZINC000616491533    0.0800
      4 C4        -12.9499   -4.2213   53.1618 C.3     1  ZINC000616491533   -0.1200
      5 C5        -12.1777   -2.9130   53.4312 C.3     1  ZINC000616491533   -0.0700
      6 C6        -11.4331   -3.2273   54.7428 C.3     1  ZINC000616491533    0.0900
      7 N7        -12.3701   -4.0690   55.5178 N.am    1  ZINC000616491533   -0.6100
      8 C8        -12.3646   -4.2215   56.8569 C.2     1  ZINC000616491533    0.6100
      9 O9        -13.1881   -4.9399   57.3904 O.2     1  ZINC000616491533   -0.5200
     10 C10       -11.3604   -3.5175   57.6749 C.2     1  ZINC000616491533   -0.2400
     11 C11       -11.5821   -2.4135   58.4737 C.2     1  ZINC000616491533    0.0700
     12 C12       -12.8968   -1.7042   58.6708 C.3     1  ZINC000616491533    0.3400
     13 F13       -13.1074   -1.4831   60.0361 F       1  ZINC000616491533   -0.1900
     14 F14       -12.8703   -0.4776   57.9985 F       1  ZINC000616491533   -0.1600
     15 N15       -10.4078   -2.0881   59.0442 N.pl3   1  ZINC000616491533   -0.2900
     16 C16       -10.1947   -1.0231   59.9301 C.ar    1  ZINC000616491533    0.1300
     17 C17       -10.0186    0.2643   59.4407 C.ar    1  ZINC000616491533   -0.1000
     18 C18        -9.8088    1.3117   60.3162 C.ar    1  ZINC000616491533   -0.1000
     19 C19        -9.7735    1.0791   61.6789 C.ar    1  ZINC000616491533   -0.1000
     20 C20        -9.9484   -0.2019   62.1693 C.ar    1  ZINC000616491533   -0.1000
     21 C21       -10.1649   -1.2524   61.2992 C.ar    1  ZINC000616491533   -0.0900
     22 N22        -9.4353   -2.9925   58.6034 N.2     1  ZINC000616491533   -0.2600
     23 C23        -9.9919   -3.8502   57.7928 C.2     1  ZINC000616491533    0.0700
     24 C24       -11.1923   -2.6297   52.3066 C.3     1  ZINC000616491533   -0.1400
     25 C25       -10.4772   -1.3027   52.5837 C.3     1  ZINC000616491533    0.0600
     26 O26       -11.4493   -0.2670   52.7426 O.3     1  ZINC000616491533   -0.3800
     27 C27       -12.3409   -0.4620   53.8423 C.3     1  ZINC000616491533    0.0600
     28 C28       -13.1411   -1.7508   53.6232 C.3     1  ZINC000616491533   -0.1500
     29 H29       -14.8324   -3.2132   54.8791 H       1  ZINC000616491533    0.0600
     30 H30       -15.4307   -4.7509   54.2114 H       1  ZINC000616491533    0.0600
     31 H31       -14.9878   -4.6401   55.9318 H       1  ZINC000616491533    0.0800
     32 H32       -12.3143   -4.9473   52.6548 H       1  ZINC000616491533    0.0800
     33 H33       -13.8516   -4.0247   52.5817 H       1  ZINC000616491533    0.0900
     34 H34       -10.5145   -3.7762   54.5356 H       1  ZINC000616491533    0.0800
     35 H35       -11.2126   -2.3071   55.2841 H       1  ZINC000616491533    0.0800
     36 H36       -13.7045   -2.3189   58.2736 H       1  ZINC000616491533    0.1400
     37 H37       -10.0454    0.4464   58.3766 H       1  ZINC000616491533    0.1300
     38 H38        -9.6718    2.3133   59.9362 H       1  ZINC000616491533    0.1400
     39 H39        -9.6085    1.8996   62.3615 H       1  ZINC000616491533    0.1300
     40 H40        -9.9204   -0.3805   63.2341 H       1  ZINC000616491533    0.1400
     41 H41       -10.3014   -2.2528   61.6827 H       1  ZINC000616491533    0.1300
     42 H42        -9.4926   -4.6678   57.2941 H       1  ZINC000616491533    0.2100
     43 H43       -10.4588   -3.4344   52.2540 H       1  ZINC000616491533    0.0800
     44 H44       -11.7292   -2.5633   51.3603 H       1  ZINC000616491533    0.0800
     45 H45        -9.8869   -1.3909   53.4957 H       1  ZINC000616491533    0.0500
     46 H46        -9.8215   -1.0610   51.7471 H       1  ZINC000616491533    0.1000
     47 H47       -11.7676   -0.5423   54.7659 H       1  ZINC000616491533    0.0500
     48 H48       -13.0250    0.3838   53.9105 H       1  ZINC000616491533    0.1000
     49 H49       -13.7654   -1.6451   52.7360 H       1  ZINC000616491533    0.0800
     50 H50       -13.7713   -1.9402   54.4921 H       1  ZINC000616491533    0.0800
@<TRIPOS>BOND
     1     1     2    1
     2     1    29    1
     3     1    30    1
     4     1    31    1
     5     2     3    1
     6     2     7    1
     7     2     4    1
     8     4     5    1
     9     4    32    1
    10     4    33    1
    11     5    28    1
    12     5     6    1
    13     5    24    1
    14     6     7    1
    15     6    34    1
    16     6    35    1
    17     7     8   am
    18     8     9    2
    19     8    10    1
    20    10    23    1
    21    10    11    2
    22    11    12    1
    23    11    15    1
    24    12    13    1
    25    12    14    1
    26    12    36    1
    27    15    16    1
    28    15    22    1
    29    16    21   ar
    30    16    17   ar
    31    17    18   ar
    32    17    37    1
    33    18    19   ar
    34    18    38    1
    35    19    20   ar
    36    19    39    1
    37    20    21   ar
    38    20    40    1
    39    21    41    1
    40    22    23    2
    41    23    42    1
    42    24    25    1
    43    24    43    1
    44    24    44    1
    45    25    26    1
    46    25    45    1
    47    25    46    1
    48    26    27    1
    49    27    28    1
    50    27    47    1
    51    27    48    1
    52    28    49    1
    53    28    50    1
@<TRIPOS>SUBSTRUCTURE
     1 ZINC000616491533        1 TEMP              0 ****  ****    0 ROOT


##########                                Name:    ZINC000478980774
##########                DOCK_Rotatable_Bonds:                   4
##########                         Heavy_Atoms:                  26
##########                    Molecular_Weight:             401.818
##########                DOCK_Rotatable_Bonds:                   4
##########                       Formal_Charge:          -0.0100001
##########                     HBond_Acceptors:                   9
##########                        HBond_Donors:                   1
##########                         Heavy_Atoms:                  26
##########                          Grid_Score:          -30.686268
##########                     Grid_vdw_energy:          -29.997753
##########                      Grid_es_energy:           -0.688514
##########           Internal_energy_repulsive:            7.894130

@<TRIPOS>MOLECULE
ZINC000478980774
 40 42 1 0 0
SMALL
USER_CHARGES


@<TRIPOS>ATOM
      1 C1         -9.3665   -0.9065   58.4373 C.3     1  ZINC000478980774   -0.1400
      2 C2         -9.8170   -2.0434   59.3566 C.3     1  ZINC000478980774   -0.4600
      3 H3         -9.0242   -2.7880   59.4290 H       1  ZINC000478980774    0.1500
      4 C4        -10.1156   -1.4929   60.7273 C.2     1  ZINC000478980774    0.5400
      5 O5        -11.0381   -1.9427   61.3738 O.2     1  ZINC000478980774   -0.5000
      6 N6         -9.3578   -0.5006   61.2347 N.am    1  ZINC000478980774   -0.6600
      7 C7         -9.6355    0.0113   62.5089 C.ar    1  ZINC000478980774    0.1600
      8 C8         -8.8924   -0.4097   63.6031 C.ar    1  ZINC000478980774   -0.1200
      9 C9         -9.1655    0.0940   64.8610 C.ar    1  ZINC000478980774   -0.0600
     10 C10       -10.1811    1.0200   65.0335 C.ar    1  ZINC000478980774    0.0100
     11 O11       -10.6431    1.6581   66.1493 O.3     1  ZINC000478980774   -0.2900
     12 C12       -11.4053    2.7787   65.6631 C.3     1  ZINC000478980774    0.5700
     13 F13       -12.4942    3.0343   66.5036 F       1  ZINC000478980774   -0.1100
     14 F14       -10.5947    3.9136   65.5525 F       1  ZINC000478980774   -0.1500
     15 O15       -11.8577    2.3481   64.3659 O.3     1  ZINC000478980774   -0.2800
     16 C16       -10.9285    1.4447   63.9369 C.ar    1  ZINC000478980774    0.0500
     17 C17       -10.6504    0.9440   62.6766 C.ar    1  ZINC000478980774   -0.0900
     18 S18       -11.3111   -2.8153   58.6764 S.o     1  ZINC000478980774    1.3000
     19 O19       -12.3542   -1.8525   58.6120 O.2     1  ZINC000478980774   -0.7800
     20 C20       -10.8051   -3.2718   56.9952 C.3     1  ZINC000478980774   -0.4300
     21 C21       -11.9575   -3.9361   56.2868 C.ar    1  ZINC000478980774   -0.0600
     22 C22       -12.9064   -4.6313   57.0121 C.ar    1  ZINC000478980774   -0.1100
     23 C23       -13.9638   -5.2409   56.3624 C.ar    1  ZINC000478980774   -0.1100
     24 C24       -14.0720   -5.1558   54.9871 C.ar    1  ZINC000478980774   -0.1100
     25 C25       -13.1234   -4.4607   54.2605 C.ar    1  ZINC000478980774   -0.1100
     26 C26       -12.0688   -3.8455   54.9106 C.ar    1  ZINC000478980774   -0.0300
     27 Cl27      -10.8771   -2.9724   53.9987 Cl      1  ZINC000478980774   -0.0600
     28 H28        -9.1505   -1.3047   57.4460 H       1  ZINC000478980774    0.0800
     29 H29       -10.1593   -0.1620   58.3650 H       1  ZINC000478980774    0.0700
     30 H30        -8.4689   -0.4426   58.8461 H       1  ZINC000478980774    0.0700
     31 H31        -8.6203   -0.1407   60.7177 H       1  ZINC000478980774    0.4200
     32 H32        -8.1002   -1.1319   63.4716 H       1  ZINC000478980774    0.1500
     33 H33        -8.5862   -0.2353   65.7108 H       1  ZINC000478980774    0.1500
     34 H34       -11.2253    1.2756   61.8246 H       1  ZINC000478980774    0.1600
     35 H35       -10.5103   -2.3761   56.4486 H       1  ZINC000478980774    0.1100
     36 H36        -9.9625   -3.9615   57.0441 H       1  ZINC000478980774    0.1300
     37 H37       -12.8219   -4.6986   58.0867 H       1  ZINC000478980774    0.1400
     38 H38       -14.7051   -5.7841   56.9297 H       1  ZINC000478980774    0.1300
     39 H39       -14.8977   -5.6328   54.4801 H       1  ZINC000478980774    0.1300
     40 H40       -13.2082   -4.3943   53.1859 H       1  ZINC000478980774    0.1300
@<TRIPOS>BOND
     1     1     2    1
     2     1    28    1
     3     1    29    1
     4     1    30    1
     5     2     3    1
     6     2     4    1
     7     2    18    1
     8     4     5    2
     9     4     6   am
    10     6     7    1
    11     6    31    1
    12     7    17   ar
    13     7     8   ar
    14     8     9   ar
    15     8    32    1
    16     9    10   ar
    17     9    33    1
    18    10    16   ar
    19    10    11    1
    20    11    12    1
    21    12    13    1
    22    12    14    1
    23    12    15    1
    24    15    16    1
    25    16    17   ar
    26    17    34    1
    27    18    19    2
    28    18    20    1
    29    20    21    1
    30    20    35    1
    31    20    36    1
    32    21    26   ar
    33    21    22   ar
    34    22    23   ar
    35    22    37    1
    36    23    24   ar
    37    23    38    1
    38    24    25   ar
    39    24    39    1
    40    25    26   ar
    41    25    40    1
    42    26    27    1
@<TRIPOS>SUBSTRUCTURE
     1 ZINC000478980774        1 TEMP              0 ****  ****    0 ROOT


##########                                Name:    ZINC000074782190
##########                DOCK_Rotatable_Bonds:                   9
##########                         Heavy_Atoms:                  25
##########                    Molecular_Weight:             341.453
##########                DOCK_Rotatable_Bonds:                   9
##########                       Formal_Charge:          -0.0200006
##########                     HBond_Acceptors:                   5
##########                        HBond_Donors:                   1
##########                         Heavy_Atoms:                  25
##########                          Grid_Score:          -30.686216
##########                     Grid_vdw_energy:          -30.863302
##########                      Grid_es_energy:            0.177086
##########           Internal_energy_repulsive:           21.172483

@<TRIPOS>MOLECULE
ZINC000074782190
 52 53 1 0 0
SMALL
USER_CHARGES


@<TRIPOS>ATOM
      1 C1         -9.2292    0.8346   58.0984 C.3     1  ZINC000074782190   -0.1100
      2 C2         -9.6409    0.7077   59.5425 C.ar    1  ZINC000074782190   -0.1200
      3 C3        -10.2006    1.7863   60.1991 C.ar    1  ZINC000074782190   -0.0800
      4 C4        -10.5782    1.6706   61.5243 C.ar    1  ZINC000074782190   -0.1500
      5 C5        -10.3969    0.4755   62.1952 C.ar    1  ZINC000074782190   -0.0900
      6 C6         -9.8380   -0.6065   61.5429 C.ar    1  ZINC000074782190   -0.2100
      7 C7         -9.4632   -0.4946   60.2120 C.ar    1  ZINC000074782190    0.1300
      8 O8         -8.9131   -1.5574   59.5680 O.3     1  ZINC000074782190   -0.3000
      9 C9         -9.7895   -2.6327   59.2250 C.3     1  ZINC000074782190    0.0700
     10 H10       -10.7806   -2.4386   59.6350 H       1  ZINC000074782190    0.0800
     11 C11        -9.2447   -3.9395   59.8048 C.3     1  ZINC000074782190   -0.1800
     12 C12        -9.8816   -2.7495   57.7023 C.3     1  ZINC000074782190    0.1400
     13 N13       -11.2589   -3.0697   57.3194 N.am    1  ZINC000074782190   -0.7500
     14 C14       -11.5273   -3.5094   56.0739 C.2     1  ZINC000074782190    0.7100
     15 O15       -10.6263   -3.6404   55.2682 O.2     1  ZINC000074782190   -0.5900
     16 N16       -12.7944   -3.8039   55.7218 N.am    1  ZINC000074782190   -0.6200
     17 C17       -13.0862   -4.2818   54.3680 C.3     1  ZINC000074782190    0.1800
     18 C18       -13.4160   -3.1088   53.4813 C.ar    1  ZINC000074782190   -0.1600
     19 C19       -12.4727   -2.1211   53.2440 C.ar    1  ZINC000074782190   -0.0500
     20 C20       -12.8203   -1.0605   52.4210 C.ar    1  ZINC000074782190   -0.1800
     21 C21       -14.0864   -1.0237   51.8685 C.ar    1  ZINC000074782190    0.1000
     22 N22       -14.9586   -1.9814   52.1163 N.ar    1  ZINC000074782190   -0.4900
     23 C23       -14.6611   -3.0071   52.8895 C.ar    1  ZINC000074782190    0.1100
     24 C24       -13.8801   -3.6461   56.6927 C.3     1  ZINC000074782190    0.1300
     25 C25       -15.1206   -3.0962   55.9858 C.3     1  ZINC000074782190   -0.1800
     26 C26       -14.2084   -5.0042   57.3160 C.3     1  ZINC000074782190   -0.1800
     27 H27       -10.0672    0.5631   57.4564 H       1  ZINC000074782190    0.0700
     28 H28        -8.9334    1.8637   57.8940 H       1  ZINC000074782190    0.0600
     29 H29        -8.3891    0.1690   57.9002 H       1  ZINC000074782190    0.0700
     30 H30       -10.3432    2.7209   59.6770 H       1  ZINC000074782190    0.1300
     31 H31       -11.0150    2.5154   62.0361 H       1  ZINC000074782190    0.1200
     32 H32       -10.6923    0.3878   63.2304 H       1  ZINC000074782190    0.1200
     33 H33        -9.6962   -1.5397   62.0676 H       1  ZINC000074782190    0.1300
     34 H34        -8.2536   -4.1336   59.3947 H       1  ZINC000074782190    0.0700
     35 H35        -9.1791   -3.8563   60.8896 H       1  ZINC000074782190    0.0700
     36 H36        -9.9132   -4.7597   59.5431 H       1  ZINC000074782190    0.0800
     37 H37        -9.5884   -1.8036   57.2469 H       1  ZINC000074782190    0.0800
     38 H38        -9.2154   -3.5405   57.3576 H       1  ZINC000074782190    0.0900
     39 H39       -11.9777   -2.9652   57.9623 H       1  ZINC000074782190    0.4100
     40 H40       -12.2154   -4.8036   53.9714 H       1  ZINC000074782190    0.0900
     41 H41       -13.9357   -4.9641   54.3988 H       1  ZINC000074782190    0.1000
     42 H42       -11.4906   -2.1761   53.6898 H       1  ZINC000074782190    0.1400
     43 H43       -12.1105   -0.2731   52.2147 H       1  ZINC000074782190    0.1300
     44 H44       -14.3649   -0.2009   51.2269 H       1  ZINC000074782190    0.1600
     45 H45       -15.4017   -3.7724   53.0694 H       1  ZINC000074782190    0.1500
     46 H46       -13.5702   -2.9528   57.4747 H       1  ZINC000074782190    0.1000
     47 H47       -15.4837   -3.8297   55.2660 H       1  ZINC000074782190    0.0600
     48 H48       -15.8985   -2.8935   56.7220 H       1  ZINC000074782190    0.0700
     49 H49       -14.8632   -2.1733   55.4659 H       1  ZINC000074782190    0.0600
     50 H50       -13.3633   -5.3427   57.9155 H       1  ZINC000074782190    0.0700
     51 H51       -15.0894   -4.9093   57.9507 H       1  ZINC000074782190    0.0700
     52 H52       -14.4063   -5.7284   56.5256 H       1  ZINC000074782190    0.0700
@<TRIPOS>BOND
     1     1     2    1
     2     1    27    1
     3     1    28    1
     4     1    29    1
     5     2     7   ar
     6     2     3   ar
     7     3     4   ar
     8     3    30    1
     9     4     5   ar
    10     4    31    1
    11     5     6   ar
    12     5    32    1
    13     6     7   ar
    14     6    33    1
    15     7     8    1
    16     8     9    1
    17     9    10    1
    18     9    11    1
    19     9    12    1
    20    11    34    1
    21    11    35    1
    22    11    36    1
    23    12    13    1
    24    12    37    1
    25    12    38    1
    26    13    14   am
    27    13    39    1
    28    14    15    2
    29    14    16   am
    30    16    17    1
    31    16    24    1
    32    17    18    1
    33    17    40    1
    34    17    41    1
    35    18    23   ar
    36    18    19   ar
    37    19    20   ar
    38    19    42    1
    39    20    21   ar
    40    20    43    1
    41    21    22   ar
    42    21    44    1
    43    22    23   ar
    44    23    45    1
    45    24    25    1
    46    24    26    1
    47    24    46    1
    48    25    47    1
    49    25    48    1
    50    25    49    1
    51    26    50    1
    52    26    51    1
    53    26    52    1
@<TRIPOS>SUBSTRUCTURE
     1 ZINC000074782190        1 TEMP              0 ****  ****    0 ROOT


##########                                Name:    ZINC000326056918
##########                DOCK_Rotatable_Bonds:                   6
##########                         Heavy_Atoms:                  24
##########                    Molecular_Weight:             408.326
##########                DOCK_Rotatable_Bonds:                   6
##########                       Formal_Charge:         -0.00999978
##########                     HBond_Acceptors:                   9
##########                        HBond_Donors:                   0
##########                         Heavy_Atoms:                  24
##########                          Grid_Score:          -30.649435
##########                     Grid_vdw_energy:          -29.884661
##########                      Grid_es_energy:           -0.764774
##########           Internal_energy_repulsive:           22.766243

@<TRIPOS>MOLECULE
ZINC000326056918
 39 40 1 0 0
SMALL
USER_CHARGES


@<TRIPOS>ATOM
      1 C1        -15.2592   -3.5038   60.3324 C.3     1  ZINC000326056918    0.0400
      2 O2        -15.5774   -2.2646   59.6459 O.3     1  ZINC000326056918   -0.3500
      3 C3        -14.5503   -1.5949   59.0834 C.2     1  ZINC000326056918    0.5000
      4 O4        -14.7153   -0.4624   58.6716 O.2     1  ZINC000326056918   -0.4300
      5 C5        -13.2369   -2.2313   58.9686 C.2     1  ZINC000326056918   -0.1600
      6 C6        -12.8862   -3.1636   58.0317 C.2     1  ZINC000326056918   -0.6200
      7 S7        -13.9899   -3.7530   56.7910 S.o2    1  ZINC000326056918    2.6900
      8 O8        -14.1706   -5.1401   57.0408 O.2     1  ZINC000326056918   -0.9100
      9 O9        -15.0657   -2.8262   56.7379 O.2     1  ZINC000326056918   -0.9400
     10 N10       -13.2017   -3.6382   55.3391 N.am    1  ZINC000326056918   -0.9900
     11 C11       -12.9691   -4.8403   54.5348 C.3     1  ZINC000326056918    0.0900
     12 C12       -12.7369   -2.3344   54.8590 C.3     1  ZINC000326056918    0.1500
     13 C13       -13.3858   -2.0265   53.5342 C.ar    1  ZINC000326056918   -0.0900
     14 C14       -14.7317   -1.7178   53.4794 C.ar    1  ZINC000326056918   -0.0800
     15 C15       -15.3279   -1.4357   52.2645 C.ar    1  ZINC000326056918   -0.1100
     16 C16       -14.5772   -1.4619   51.1027 C.ar    1  ZINC000326056918   -0.0200
     17 Cl17      -15.3259   -1.1070   49.5772 Cl      1  ZINC000326056918   -0.0600
     18 C18       -13.2296   -1.7703   51.1571 C.ar    1  ZINC000326056918   -0.1100
     19 C19       -12.6327   -2.0474   52.3735 C.ar    1  ZINC000326056918   -0.0300
     20 Cl20      -10.9416   -2.4341   52.4427 Cl      1  ZINC000326056918   -0.0100
     21 C21       -11.5870   -3.5944   58.1537 C.2     1  ZINC000326056918   -0.0400
     22 C22       -10.9850   -4.6198   57.2278 C.3     1  ZINC000326056918   -0.1100
     23 C23       -10.8952   -3.0365   59.1546 C.2     1  ZINC000326056918   -0.2600
     24 S24       -11.8551   -1.9140   60.0087 S.3     1  ZINC000326056918    0.3100
     25 H25       -16.1725   -3.9396   60.7375 H       1  ZINC000326056918    0.1100
     26 H26       -14.8042   -4.2020   59.6298 H       1  ZINC000326056918    0.0700
     27 H27       -14.5621   -3.3003   61.1453 H       1  ZINC000326056918    0.0700
     28 H28       -13.8484   -5.0445   53.9239 H       1  ZINC000326056918    0.0600
     29 H29       -12.1058   -4.6835   53.8882 H       1  ZINC000326056918    0.0700
     30 H30       -12.7800   -5.6876   55.1941 H       1  ZINC000326056918    0.0900
     31 H31       -13.0047   -1.5643   55.5824 H       1  ZINC000326056918    0.1100
     32 H32       -11.6540   -2.3572   54.7367 H       1  ZINC000326056918    0.0900
     33 H33       -15.3182   -1.6973   54.3862 H       1  ZINC000326056918    0.1400
     34 H34       -16.3800   -1.1953   52.2222 H       1  ZINC000326056918    0.1400
     35 H35       -12.6432   -1.7908   50.2503 H       1  ZINC000326056918    0.1500
     36 H36       -10.6369   -4.1289   56.3190 H       1  ZINC000326056918    0.0900
     37 H37       -10.1445   -5.1069   57.7224 H       1  ZINC000326056918    0.0700
     38 H38       -11.7381   -5.3654   56.9725 H       1  ZINC000326056918    0.0900
     39 H39        -9.8654   -3.2637   59.3879 H       1  ZINC000326056918    0.1800
@<TRIPOS>BOND
     1     1     2    1
     2     1    25    1
     3     1    26    1
     4     1    27    1
     5     2     3    1
     6     3     4    2
     7     3     5    1
     8     5    24    1
     9     5     6    2
    10     6     7    1
    11     6    21    1
    12     7     8    2
    13     7     9    2
    14     7    10   am
    15    10    11    1
    16    10    12    1
    17    11    28    1
    18    11    29    1
    19    11    30    1
    20    12    13    1
    21    12    31    1
    22    12    32    1
    23    13    19   ar
    24    13    14   ar
    25    14    15   ar
    26    14    33    1
    27    15    16   ar
    28    15    34    1
    29    16    17    1
    30    16    18   ar
    31    18    19   ar
    32    18    35    1
    33    19    20    1
    34    21    22    1
    35    21    23    2
    36    22    36    1
    37    22    37    1
    38    22    38    1
    39    23    24    1
    40    23    39    1
@<TRIPOS>SUBSTRUCTURE
     1 ZINC000326056918        1 TEMP              0 ****  ****    0 ROOT


##########                                Name:    ZINC000750807956
##########                DOCK_Rotatable_Bonds:                  11
##########                         Heavy_Atoms:                  26
##########                    Molecular_Weight:             368.473
##########                DOCK_Rotatable_Bonds:                  11
##########                       Formal_Charge:        -8.12113e-07
##########                     HBond_Acceptors:                   7
##########                        HBond_Donors:                   1
##########                         Heavy_Atoms:                  26
##########                          Grid_Score:          -30.588039
##########                     Grid_vdw_energy:          -29.551710
##########                      Grid_es_energy:           -1.036330
##########           Internal_energy_repulsive:           99.795746

@<TRIPOS>MOLECULE
ZINC000750807956
 58 59 1 0 0
SMALL
USER_CHARGES


@<TRIPOS>ATOM
      1 C1        -15.4806   -3.2539   59.7535 C.3     1  ZINC000750807956   -0.1500
      2 C2        -14.7016   -2.2350   58.9192 C.3     1  ZINC000750807956    0.0700
      3 O3        -13.2852   -2.3454   59.2190 O.3     1  ZINC000750807956   -0.3600
      4 C4        -12.4479   -1.5866   58.4945 C.2     1  ZINC000750807956    0.4800
      5 O5        -12.8795   -0.6682   57.8385 O.2     1  ZINC000750807956   -0.4900
      6 C6        -10.9698   -1.8801   58.4992 C.3     1  ZINC000750807956    0.1600
      7 H7        -10.5144   -1.4772   57.5945 H       1  ZINC000750807956    0.1000
      8 C8        -10.7472   -3.3946   58.5554 C.3     1  ZINC000750807956   -0.1300
      9 C9         -9.2508   -3.6812   58.7003 C.3     1  ZINC000750807956   -0.1200
     10 C10        -8.7362   -3.0685   60.0048 C.3     1  ZINC000750807956   -0.1400
     11 C11        -8.9361   -1.5502   59.9649 C.3     1  ZINC000750807956    0.1100
     12 N12       -10.3490   -1.2637   59.6796 N.am    1  ZINC000750807956   -0.6100
     13 C13       -11.0626   -0.4553   60.4881 C.2     1  ZINC000750807956    0.5100
     14 O14       -12.2279   -0.2266   60.2418 O.2     1  ZINC000750807956   -0.5000
     15 C15       -10.4126    0.1645   61.6982 C.3     1  ZINC000750807956   -0.1400
     16 C16       -11.3455    1.2213   62.2932 C.3     1  ZINC000750807956    0.2100
     17 H17       -11.8529    1.7525   61.4881 H       1  ZINC000750807956    0.1000
     18 N18       -10.5633    2.1712   63.0881 N.am    1  ZINC000750807956   -0.7000
     19 C19        -9.8973    1.7478   64.1806 C.2     1  ZINC000750807956    0.6600
     20 O20        -9.9445    0.5779   64.5055 O.2     1  ZINC000750807956   -0.5600
     21 O21        -9.1797    2.6211   64.9121 O.3     1  ZINC000750807956   -0.3700
     22 C22        -8.4620    2.0890   66.0567 C.3     1  ZINC000750807956    0.1400
     23 C23        -7.7093    3.2214   66.7582 C.3     1  ZINC000750807956   -0.1800
     24 C24        -9.4558    1.4561   67.0327 C.3     1  ZINC000750807956   -0.1400
     25 C25        -7.4646    1.0289   65.5854 C.3     1  ZINC000750807956   -0.1800
     26 C26       -12.3828    0.5401   63.1881 C.3     1  ZINC000750807956   -0.1800
     27 C27       -13.0459    1.3897   64.2740 C.3     1  ZINC000750807956   -0.1700
     28 C28       -13.8418    0.9743   63.0351 C.3     1  ZINC000750807956   -0.1800
     29 H29       -15.3169   -3.0570   60.8130 H       1  ZINC000750807956    0.0600
     30 H30       -16.5438   -3.1709   59.5284 H       1  ZINC000750807956    0.0800
     31 H31       -15.1357   -4.2597   59.5133 H       1  ZINC000750807956    0.0700
     32 H32       -14.8652   -2.4319   57.8597 H       1  ZINC000750807956    0.0700
     33 H33       -15.0464   -1.2292   59.1594 H       1  ZINC000750807956    0.0600
     34 H34       -11.2814   -3.8094   59.4103 H       1  ZINC000750807956    0.0800
     35 H35       -11.1179   -3.8512   57.6378 H       1  ZINC000750807956    0.0800
     36 H36        -9.0873   -4.7588   58.7158 H       1  ZINC000750807956    0.0800
     37 H37        -8.7143   -3.2448   57.8577 H       1  ZINC000750807956    0.0700
     38 H38        -9.2894   -3.4863   60.8461 H       1  ZINC000750807956    0.0700
     39 H39        -7.6757   -3.2929   60.1188 H       1  ZINC000750807956    0.0800
     40 H40        -8.6633   -1.1203   60.9287 H       1  ZINC000750807956    0.0900
     41 H41        -8.3127   -1.1200   59.1811 H       1  ZINC000750807956    0.0800
     42 H42       -10.2177   -0.6082   62.4418 H       1  ZINC000750807956    0.1200
     43 H43        -9.4727    0.6328   61.4059 H       1  ZINC000750807956    0.1100
     44 H44       -10.5246    3.1050   62.8281 H       1  ZINC000750807956    0.4000
     45 H45        -8.4198    3.9767   67.0939 H       1  ZINC000750807956    0.0600
     46 H46        -7.1704    2.8219   67.6173 H       1  ZINC000750807956    0.0700
     47 H47        -7.0012    3.6723   66.0629 H       1  ZINC000750807956    0.0900
     48 H48        -9.9921    0.6494   66.5330 H       1  ZINC000750807956    0.0700
     49 H49        -8.9171    1.0566   67.8919 H       1  ZINC000750807956    0.0800
     50 H50       -10.1665    2.2114   67.3685 H       1  ZINC000750807956    0.0700
     51 H51        -6.7565    1.4798   64.8901 H       1  ZINC000750807956    0.0900
     52 H52        -6.9258    0.6294   66.4446 H       1  ZINC000750807956    0.0700
     53 H53        -8.0008    0.2221   65.0857 H       1  ZINC000750807956    0.0600
     54 H54       -12.1910   -0.5085   63.4160 H       1  ZINC000750807956    0.1100
     55 H55       -13.2904    0.9004   65.2167 H       1  ZINC000750807956    0.0900
     56 H56       -12.7431    2.4340   64.3508 H       1  ZINC000750807956    0.0900
     57 H57       -14.0627    1.7454   62.2969 H       1  ZINC000750807956    0.1200
     58 H58       -14.6100    0.2116   63.1627 H       1  ZINC000750807956    0.0900
@<TRIPOS>BOND
     1     1     2    1
     2     1    29    1
     3     1    30    1
     4     1    31    1
     5     2     3    1
     6     2    32    1
     7     2    33    1
     8     3     4    1
     9     4     5    2
    10     4     6    1
    11     6     7    1
    12     6    12    1
    13     6     8    1
    14     8     9    1
    15     8    34    1
    16     8    35    1
    17     9    10    1
    18     9    36    1
    19     9    37    1
    20    10    11    1
    21    10    38    1
    22    10    39    1
    23    11    12    1
    24    11    40    1
    25    11    41    1
    26    12    13   am
    27    13    14    2
    28    13    15    1
    29    15    16    1
    30    15    42    1
    31    15    43    1
    32    16    17    1
    33    16    18    1
    34    16    26    1
    35    18    19   am
    36    18    44    1
    37    19    20    2
    38    19    21    1
    39    21    22    1
    40    22    23    1
    41    22    24    1
    42    22    25    1
    43    23    45    1
    44    23    46    1
    45    23    47    1
    46    24    48    1
    47    24    49    1
    48    24    50    1
    49    25    51    1
    50    25    52    1
    51    25    53    1
    52    26    28    1
    53    26    27    1
    54    26    54    1
    55    27    28    1
    56    27    55    1
    57    27    56    1
    58    28    57    1
    59    28    58    1
@<TRIPOS>SUBSTRUCTURE
     1 ZINC000750807956        1 TEMP              0 ****  ****    0 ROOT


##########                                Name:    ZINC000341804698
##########                DOCK_Rotatable_Bonds:                   7
##########                         Heavy_Atoms:                  24
##########                    Molecular_Weight:             342.318
##########                DOCK_Rotatable_Bonds:                   7
##########                       Formal_Charge:                0.02
##########                     HBond_Acceptors:                   8
##########                        HBond_Donors:                   0
##########                         Heavy_Atoms:                  24
##########                          Grid_Score:          -30.573647
##########                     Grid_vdw_energy:          -29.202177
##########                      Grid_es_energy:           -1.371469
##########           Internal_energy_repulsive:           11.932720

@<TRIPOS>MOLECULE
ZINC000341804698
 41 42 1 0 0
SMALL
USER_CHARGES


@<TRIPOS>ATOM
      1 C1         -9.7888    3.0032   59.6588 C.3     1  ZINC000341804698    0.0300
      2 O2        -10.4372    1.7302   59.6240 O.3     1  ZINC000341804698   -0.3900
      3 C3         -9.5668    0.6273   59.8850 C.3     1  ZINC000341804698    0.0700
      4 C4        -10.3713   -0.6740   59.8608 C.3     1  ZINC000341804698    0.0400
      5 C5        -11.4172   -0.6233   60.8954 C.1     1  ZINC000341804698    0.2200
      6 N6        -12.2243   -0.5841   61.6937 N.1     1  ZINC000341804698   -0.4200
      7 C7        -11.0218   -0.8457   58.4863 C.3     1  ZINC000341804698   -0.1200
      8 C8        -11.8543   -2.1317   58.4769 C.3     1  ZINC000341804698    0.1100
      9 N9        -10.9964   -3.2533   58.8828 N.am    1  ZINC000341804698   -0.6000
     10 C10       -10.8933   -4.3533   58.1108 C.2     1  ZINC000341804698    0.5700
     11 O11       -10.1801   -5.2745   58.4577 O.2     1  ZINC000341804698   -0.5200
     12 C12       -11.6475   -4.4395   56.8421 C.ar    1  ZINC000341804698   -0.0900
     13 C13       -12.9443   -4.9552   56.8319 C.ar    1  ZINC000341804698   -0.1100
     14 C14       -13.6454   -5.0344   55.6459 C.ar    1  ZINC000341804698   -0.0800
     15 C15       -13.0674   -4.6041   54.4661 C.ar    1  ZINC000341804698   -0.1700
     16 C16       -11.7775   -4.0900   54.4663 C.ar    1  ZINC000341804698    0.1100
     17 O17       -11.2139   -3.6689   53.3034 O.3     1  ZINC000341804698   -0.3100
     18 C18       -11.6707   -2.4220   52.7754 C.3     1  ZINC000341804698    0.6000
     19 F19       -10.6933   -1.8880   51.9287 F       1  ZINC000341804698   -0.1600
     20 F20       -12.8519   -2.6256   52.0541 F       1  ZINC000341804698   -0.1300
     21 F21       -11.9138   -1.5316   53.8267 F       1  ZINC000341804698   -0.1600
     22 C22       -11.0675   -4.0003   55.6515 C.ar    1  ZINC000341804698   -0.0700
     23 C23       -10.2527   -3.1528   60.1458 C.3     1  ZINC000341804698    0.0900
     24 C24        -9.4382   -1.8554   60.1365 C.3     1  ZINC000341804698   -0.1200
     25 H25        -9.3543    3.1628   60.6456 H       1  ZINC000341804698    0.0400
     26 H26        -9.0008    3.0302   58.9062 H       1  ZINC000341804698    0.0500
     27 H27       -10.5167    3.7874   59.4510 H       1  ZINC000341804698    0.0900
     28 H28        -8.7902    0.5887   59.1212 H       1  ZINC000341804698    0.0700
     29 H29        -9.1066    0.7517   60.8652 H       1  ZINC000341804698    0.0600
     30 H30       -11.6682    0.0075   58.2807 H       1  ZINC000341804698    0.1000
     31 H31       -10.2470   -0.9082   57.7222 H       1  ZINC000341804698    0.0900
     32 H32       -12.6844   -2.0348   59.1766 H       1  ZINC000341804698    0.0700
     33 H33       -12.2390   -2.3106   57.4729 H       1  ZINC000341804698    0.1100
     34 H34       -13.3988   -5.2925   57.7518 H       1  ZINC000341804698    0.1400
     35 H35       -14.6488   -5.4339   55.6393 H       1  ZINC000341804698    0.1400
     36 H36       -13.6207   -4.6684   53.5409 H       1  ZINC000341804698    0.1400
     37 H37       -10.0643   -3.6003   55.6531 H       1  ZINC000341804698    0.1500
     38 H38       -10.9522   -3.1392   60.9817 H       1  ZINC000341804698    0.0800
     39 H39        -9.5806   -4.0054   60.2431 H       1  ZINC000341804698    0.1100
     40 H40        -8.6783   -1.9084   59.3569 H       1  ZINC000341804698    0.1000
     41 H41        -8.9573   -1.7207   61.1055 H       1  ZINC000341804698    0.0900
@<TRIPOS>BOND
     1     1     2    1
     2     1    25    1
     3     1    26    1
     4     1    27    1
     5     2     3    1
     6     3     4    1
     7     3    28    1
     8     3    29    1
     9     4    24    1
    10     4     5    1
    11     4     7    1
    12     5     6    3
    13     7     8    1
    14     7    30    1
    15     7    31    1
    16     8     9    1
    17     8    32    1
    18     8    33    1
    19     9    10   am
    20     9    23    1
    21    10    11    2
    22    10    12    1
    23    12    22   ar
    24    12    13   ar
    25    13    14   ar
    26    13    34    1
    27    14    15   ar
    28    14    35    1
    29    15    16   ar
    30    15    36    1
    31    16    17    1
    32    16    22   ar
    33    17    18    1
    34    18    19    1
    35    18    20    1
    36    18    21    1
    37    22    37    1
    38    23    24    1
    39    23    38    1
    40    23    39    1
    41    24    40    1
    42    24    41    1
@<TRIPOS>SUBSTRUCTURE
     1 ZINC000341804698        1 TEMP              0 ****  ****    0 ROOT


##########                                Name:    ZINC000426607143
##########                DOCK_Rotatable_Bonds:                   3
##########                         Heavy_Atoms:                  25
##########                    Molecular_Weight:             419.302
##########                DOCK_Rotatable_Bonds:                   3
##########                       Formal_Charge:         1.49012e-07
##########                     HBond_Acceptors:                   7
##########                        HBond_Donors:                   0
##########                         Heavy_Atoms:                  25
##########                          Grid_Score:          -30.570868
##########                     Grid_vdw_energy:          -30.173105
##########                      Grid_es_energy:           -0.397762
##########           Internal_energy_repulsive:           28.204718

@<TRIPOS>MOLECULE
ZINC000426607143
 40 43 1 0 0
SMALL
USER_CHARGES


@<TRIPOS>ATOM
      1 C1        -13.5259   -0.3622   61.3202 C.3     1  ZINC000426607143   -0.0900
      2 C2        -12.7888    0.1174   62.5441 C.2     1  ZINC000426607143    0.1600
      3 N3        -13.4132    0.6573   63.5456 N.2     1  ZINC000426607143   -0.4600
      4 S4        -12.2520    1.0601   64.7133 S.3     1  ZINC000426607143    0.2900
      5 C5        -10.8979    0.4839   63.8222 C.2     1  ZINC000426607143   -0.1300
      6 C6         -9.4515    0.5059   64.2447 C.3     1  ZINC000426607143   -0.0800
      7 C7        -11.4100   -0.0025   62.6561 C.2     1  ZINC000426607143   -0.1200
      8 C8        -10.5651   -0.5999   61.5935 C.2     1  ZINC000426607143    0.2500
      9 N9         -9.2586   -0.6672   61.5859 N.2     1  ZINC000426607143   -0.3700
     10 O10        -8.8756   -1.2159   60.5743 O.3     1  ZINC000426607143    0.0900
     11 C11        -9.9212   -1.5621   59.8170 C.2     1  ZINC000426607143    0.2000
     12 C12        -9.8679   -2.2631   58.4841 C.3     1  ZINC000426607143   -0.0300
     13 H13        -9.0034   -1.9272   57.9118 H       1  ZINC000426607143    0.1600
     14 C14        -9.8245   -3.7963   58.6804 C.3     1  ZINC000426607143   -0.1200
     15 C15       -10.6821   -4.2902   57.4941 C.3     1  ZINC000426607143    0.1000
     16 N16       -11.5810   -3.1761   57.1703 N.am    1  ZINC000426607143   -0.5800
     17 C17       -12.7430   -3.2974   56.3996 C.ar    1  ZINC000426607143    0.1700
     18 C18       -13.9866   -3.3256   57.0158 C.ar    1  ZINC000426607143   -0.1000
     19 C19       -15.1319   -3.4455   56.2524 C.ar    1  ZINC000426607143   -0.1000
     20 C20       -15.0408   -3.5378   54.8759 C.ar    1  ZINC000426607143   -0.1000
     21 C21       -13.8037   -3.5100   54.2583 C.ar    1  ZINC000426607143   -0.0900
     22 C22       -12.6548   -3.3842   55.0154 C.ar    1  ZINC000426607143   -0.0800
     23 Br23      -10.9635   -3.3464   54.1704 Br      1  ZINC000426607143   -0.0400
     24 C24       -11.1436   -2.0215   57.7075 C.2     1  ZINC000426607143    0.5300
     25 O25       -11.6943   -0.9473   57.5886 O.2     1  ZINC000426607143   -0.4900
     26 N26       -11.0012   -1.1823   60.4534 N.2     1  ZINC000426607143   -0.4600
     27 H27       -13.8192   -1.4030   61.4573 H       1  ZINC000426607143    0.0900
     28 H28       -14.4156    0.2491   61.1691 H       1  ZINC000426607143    0.0800
     29 H29       -12.8760   -0.2796   60.4490 H       1  ZINC000426607143    0.1100
     30 H30        -9.3687    0.9555   65.2342 H       1  ZINC000426607143    0.0800
     31 H31        -9.0664   -0.5132   64.2753 H       1  ZINC000426607143    0.0900
     32 H32        -8.8732    1.0916   63.5300 H       1  ZINC000426607143    0.0900
     33 H33        -8.8035   -4.1704   58.6060 H       1  ZINC000426607143    0.1100
     34 H34       -10.2742   -4.0806   59.6317 H       1  ZINC000426607143    0.1000
     35 H35       -10.0461   -4.5222   56.6398 H       1  ZINC000426607143    0.0900
     36 H36       -11.2589   -5.1679   57.7853 H       1  ZINC000426607143    0.0900
     37 H37       -14.0588   -3.2543   58.0910 H       1  ZINC000426607143    0.1400
     38 H38       -16.0994   -3.4675   56.7315 H       1  ZINC000426607143    0.1400
     39 H39       -15.9377   -3.6322   54.2818 H       1  ZINC000426607143    0.1400
     40 H40       -13.7359   -3.5824   53.1829 H       1  ZINC000426607143    0.1400
@<TRIPOS>BOND
     1     1     2    1
     2     1    27    1
     3     1    28    1
     4     1    29    1
     5     2     7    1
     6     2     3    2
     7     3     4    1
     8     4     5    1
     9     5     6    1
    10     5     7    2
    11     6    30    1
    12     6    31    1
    13     6    32    1
    14     7     8    1
    15     8    26    1
    16     8     9    2
    17     9    10    1
    18    10    11    1
    19    11    12    1
    20    11    26    2
    21    12    13    1
    22    12    24    1
    23    12    14    1
    24    14    15    1
    25    14    33    1
    26    14    34    1
    27    15    16    1
    28    15    35    1
    29    15    36    1
    30    16    17    1
    31    16    24   am
    32    17    22   ar
    33    17    18   ar
    34    18    19   ar
    35    18    37    1
    36    19    20   ar
    37    19    38    1
    38    20    21   ar
    39    20    39    1
    40    21    22   ar
    41    21    40    1
    42    22    23    1
    43    24    25    2
@<TRIPOS>SUBSTRUCTURE
     1 ZINC000426607143        1 TEMP              0 ****  ****    0 ROOT


##########                                Name:    ZINC000545381384
##########                DOCK_Rotatable_Bonds:                   6
##########                         Heavy_Atoms:                  30
##########                    Molecular_Weight:             405.543
##########                DOCK_Rotatable_Bonds:                   6
##########                       Formal_Charge:                0.05
##########                     HBond_Acceptors:                   6
##########                        HBond_Donors:                   1
##########                         Heavy_Atoms:                  30
##########                          Grid_Score:          -30.541605
##########                     Grid_vdw_energy:          -29.848219
##########                      Grid_es_energy:           -0.693386
##########           Internal_energy_repulsive:           18.256578

@<TRIPOS>MOLECULE
ZINC000545381384
 61 64 1 0 0
SMALL
USER_CHARGES


@<TRIPOS>ATOM
      1 C1         -8.8033    2.2672   57.0125 C.3     1  ZINC000545381384   -0.2000
      2 C2         -8.5153    0.7786   57.2171 C.3     1  ZINC000545381384    0.0500
      3 N3         -9.6141    0.1670   57.9764 N.3     1  ZINC000545381384   -0.5300
      4 C4         -9.1091   -0.8630   58.8978 C.3     1  ZINC000545381384    0.0500
      5 C5        -10.2065   -1.1911   59.9099 C.3     1  ZINC000545381384   -0.0700
      6 C6        -11.4981   -1.4941   59.1890 C.ar    1  ZINC000545381384    0.1800
      7 C7        -11.6856   -1.1208   57.8634 C.ar    1  ZINC000545381384   -0.0800
      8 C8        -10.6191   -0.4070   57.0761 C.3     1  ZINC000545381384    0.0900
      9 C9        -12.8910   -1.4115   57.2294 C.ar    1  ZINC000545381384   -0.0700
     10 C10       -13.1217   -1.0243   55.8213 C.2     1  ZINC000545381384    0.5800
     11 O11       -13.6661    0.0314   55.5626 O.2     1  ZINC000545381384   -0.4800
     12 N12       -12.7285   -1.8418   54.8246 N.am    1  ZINC000545381384   -0.6400
     13 C13       -12.9444   -1.4762   53.4975 C.2     1  ZINC000545381384    0.3000
     14 C14       -14.0607   -0.8770   52.9985 C.2     1  ZINC000545381384   -0.2700
     15 C15       -13.8674   -0.6842   51.6282 C.2     1  ZINC000545381384    0.1000
     16 C16       -14.8529   -0.0514   50.6799 C.3     1  ZINC000545381384   -0.0300
     17 C17       -15.4947   -1.1361   49.8125 C.3     1  ZINC000545381384   -0.0600
     18 C18       -16.7516   -0.5765   49.1432 C.3     1  ZINC000545381384   -0.1500
     19 C19       -14.5014   -1.5843   48.7385 C.3     1  ZINC000545381384   -0.1400
     20 C20       -15.8728   -2.3322   50.6884 C.3     1  ZINC000545381384   -0.1400
     21 N21       -12.6858   -1.1457   51.3079 N.2     1  ZINC000545381384   -0.2700
     22 N22       -12.0776   -1.6469   52.4659 N.pl3   1  ZINC000545381384   -0.3900
     23 C23       -10.7472   -2.2547   52.5480 C.3     1  ZINC000545381384    0.1000
     24 C24       -13.8895   -2.0889   57.9709 C.ar    1  ZINC000545381384   -0.0700
     25 C25       -15.1275   -2.4181   57.4045 C.ar    1  ZINC000545381384   -0.1100
     26 C26       -16.0590   -3.0718   58.1541 C.ar    1  ZINC000545381384   -0.1000
     27 C27       -15.7957   -3.4169   59.4783 C.ar    1  ZINC000545381384   -0.1000
     28 C28       -14.6043   -3.1113   60.0599 C.ar    1  ZINC000545381384   -0.0900
     29 C29       -13.6173   -2.4369   59.3172 C.ar    1  ZINC000545381384    0.1400
     30 N30       -12.4411   -2.1237   59.8593 N.ar    1  ZINC000545381384   -0.4600
     31 H31        -9.7526    2.3852   56.4899 H       1  ZINC000545381384    0.0600
     32 H32        -8.8579    2.7633   57.9815 H       1  ZINC000545381384    0.0600
     33 H33        -8.0046    2.7138   56.4201 H       1  ZINC000545381384    0.0700
     34 H34        -8.4272    0.2889   56.2472 H       1  ZINC000545381384    0.0900
     35 H35        -7.5827    0.6614   57.7692 H       1  ZINC000545381384    0.0800
     36 H36        -8.8488   -1.7604   58.3365 H       1  ZINC000545381384    0.0500
     37 H37        -8.2297   -0.4870   59.4205 H       1  ZINC000545381384    0.0900
     38 H38        -9.9082   -2.0587   60.4984 H       1  ZINC000545381384    0.1000
     39 H39       -10.3535   -0.3388   60.5732 H       1  ZINC000545381384    0.1000
     40 H40       -11.0766    0.3910   56.4912 H       1  ZINC000545381384    0.0900
     41 H41       -10.1366   -1.1134   56.4006 H       1  ZINC000545381384    0.0700
     42 H42       -12.2951   -2.6847   55.0310 H       1  ZINC000545381384    0.4100
     43 H43       -14.9396   -0.6003   53.5618 H       1  ZINC000545381384    0.1700
     44 H44       -15.6266    0.4629   51.2499 H       1  ZINC000545381384    0.0800
     45 H45       -14.3349    0.6648   50.0420 H       1  ZINC000545381384    0.0800
     46 H46       -16.4822    0.2756   48.5191 H       1  ZINC000545381384    0.0500
     47 H47       -17.2088   -1.3494   48.5251 H       1  ZINC000545381384    0.0500
     48 H48       -17.4592   -0.2573   49.9083 H       1  ZINC000545381384    0.0800
     49 H49       -13.6060   -1.9829   49.2153 H       1  ZINC000545381384    0.0600
     50 H50       -14.9586   -2.3570   48.1205 H       1  ZINC000545381384    0.0600
     51 H51       -14.2320   -0.7321   48.1144 H       1  ZINC000545381384    0.0600
     52 H52       -16.5805   -2.0129   51.4536 H       1  ZINC000545381384    0.0500
     53 H53       -16.3300   -3.1050   50.0704 H       1  ZINC000545381384    0.0500
     54 H54       -14.9773   -2.7308   51.1653 H       1  ZINC000545381384    0.0500
     55 H55       -10.0064   -1.4815   52.7522 H       1  ZINC000545381384    0.0800
     56 H56       -10.7334   -2.9919   53.3508 H       1  ZINC000545381384    0.0800
     57 H57       -10.5117   -2.7429   51.6024 H       1  ZINC000545381384    0.1000
     58 H58       -15.3429   -2.1550   56.3794 H       1  ZINC000545381384    0.1300
     59 H59       -17.0133   -3.3253   57.7166 H       1  ZINC000545381384    0.1300
     60 H60       -16.5497   -3.9350   60.0522 H       1  ZINC000545381384    0.1400
     61 H61       -14.4168   -3.3851   61.0876 H       1  ZINC000545381384    0.1400
@<TRIPOS>BOND
     1     1     2    1
     2     1    31    1
     3     1    32    1
     4     1    33    1
     5     2     3    1
     6     2    34    1
     7     2    35    1
     8     3     8    1
     9     3     4    1
    10     4     5    1
    11     4    36    1
    12     4    37    1
    13     5     6    1
    14     5    38    1
    15     5    39    1
    16     6    30   ar
    17     6     7   ar
    18     7     8    1
    19     7     9   ar
    20     8    40    1
    21     8    41    1
    22     9    10    1
    23     9    24   ar
    24    10    11    2
    25    10    12   am
    26    12    13    1
    27    12    42    1
    28    13    22    1
    29    13    14    2
    30    14    15    1
    31    14    43    1
    32    15    16    1
    33    15    21    2
    34    16    17    1
    35    16    44    1
    36    16    45    1
    37    17    18    1
    38    17    19    1
    39    17    20    1
    40    18    46    1
    41    18    47    1
    42    18    48    1
    43    19    49    1
    44    19    50    1
    45    19    51    1
    46    20    52    1
    47    20    53    1
    48    20    54    1
    49    21    22    1
    50    22    23    1
    51    23    55    1
    52    23    56    1
    53    23    57    1
    54    24    29   ar
    55    24    25   ar
    56    25    26   ar
    57    25    58    1
    58    26    27   ar
    59    26    59    1
    60    27    28   ar
    61    27    60    1
    62    28    29   ar
    63    28    61    1
    64    29    30   ar
@<TRIPOS>SUBSTRUCTURE
     1 ZINC000545381384        1 TEMP              0 ****  ****    0 ROOT


##########                                Name:    ZINC000797321835
##########                DOCK_Rotatable_Bonds:                   4
##########                         Heavy_Atoms:                  22
##########                    Molecular_Weight:             381.253
##########                DOCK_Rotatable_Bonds:                   4
##########                       Formal_Charge:           0.0200001
##########                     HBond_Acceptors:                   7
##########                        HBond_Donors:                   1
##########                         Heavy_Atoms:                  22
##########                          Grid_Score:          -30.530455
##########                     Grid_vdw_energy:          -30.097637
##########                      Grid_es_energy:           -0.432818
##########           Internal_energy_repulsive:            4.334878

@<TRIPOS>MOLECULE
ZINC000797321835
 35 37 1 0 0
SMALL
USER_CHARGES


@<TRIPOS>ATOM
      1 C1        -14.2401   -2.5170   55.1945 C.3     1  ZINC000797321835    0.1000
      2 N2        -13.0818   -3.0468   54.4708 N.am    1  ZINC000797321835   -0.6000
      3 C3        -12.9265   -2.9826   53.1371 C.2     1  ZINC000797321835    0.5200
      4 O4        -13.7227   -2.4872   52.3681 O.2     1  ZINC000797321835   -0.5200
      5 C5        -11.6136   -3.6176   52.7351 C.3     1  ZINC000797321835   -0.1500
      6 C6        -10.8124   -3.7004   54.0551 C.3     1  ZINC000797321835   -0.1200
      7 C7        -11.9391   -3.7106   55.1093 C.3     1  ZINC000797321835    0.1200
      8 H8        -12.2032   -4.7356   55.3693 H       1  ZINC000797321835    0.1100
      9 C9        -11.5084   -2.9556   56.3403 C.2     1  ZINC000797321835    0.4900
     10 O10       -11.3299   -1.7573   56.2853 O.2     1  ZINC000797321835   -0.4400
     11 N11       -11.3214   -3.6122   57.5024 N.am    1  ZINC000797321835   -0.6500
     12 C12       -10.9227   -2.9134   58.6417 C.ar    1  ZINC000797321835    0.3000
     13 C13        -9.6173   -3.0415   59.1179 C.ar    1  ZINC000797321835   -0.1400
     14 C14        -9.2656   -2.3299   60.2504 C.ar    1  ZINC000797321835   -0.0800
     15 C15       -10.2430   -1.5241   60.8493 C.ar    1  ZINC000797321835    0.1100
     16 C16        -9.9198   -0.7430   62.0602 C.2     1  ZINC000797321835   -0.1400
     17 C17       -10.6997    0.2160   62.5993 C.2     1  ZINC000797321835   -0.0900
     18 C18       -10.1852    0.8076   63.7336 C.2     1  ZINC000797321835   -0.0900
     19 C19        -8.9941    0.3411   64.1249 C.2     1  ZINC000797321835   -0.2000
     20 Br20       -8.0317    0.9462   65.6362 Br      1  ZINC000797321835    0.0200
     21 S21        -8.4615   -0.9248   63.0265 S.3     1  ZINC000797321835    0.1900
     22 N22       -11.4616   -1.4652   60.3230 N.ar    1  ZINC000797321835   -0.1900
     23 N23       -11.7813   -2.1239   59.2688 N.ar    1  ZINC000797321835   -0.2200
     24 H24       -14.0534   -1.4786   55.4685 H       1  ZINC000797321835    0.0700
     25 H25       -15.1227   -2.5715   54.5573 H       1  ZINC000797321835    0.0800
     26 H26       -14.4059   -3.1065   56.0962 H       1  ZINC000797321835    0.0700
     27 H27       -11.7810   -4.6145   52.3273 H       1  ZINC000797321835    0.1100
     28 H28       -11.0925   -2.9909   52.0112 H       1  ZINC000797321835    0.1100
     29 H29       -10.2257   -4.6180   54.0984 H       1  ZINC000797321835    0.1100
     30 H30       -10.1748   -2.8253   54.1799 H       1  ZINC000797321835    0.0900
     31 H31       -11.4642   -4.5705   57.5464 H       1  ZINC000797321835    0.4200
     32 H32        -8.9028   -3.6779   58.6170 H       1  ZINC000797321835    0.1600
     33 H33        -8.2685   -2.3935   60.6606 H       1  ZINC000797321835    0.1500
     34 H34       -11.6522    0.4985   62.1757 H       1  ZINC000797321835    0.1600
     35 H35       -10.7052    1.5898   64.2664 H       1  ZINC000797321835    0.1600
@<TRIPOS>BOND
     1     1     2    1
     2     1    24    1
     3     1    25    1
     4     1    26    1
     5     2     7    1
     6     2     3   am
     7     3     4    2
     8     3     5    1
     9     5     6    1
    10     5    27    1
    11     5    28    1
    12     6     7    1
    13     6    29    1
    14     6    30    1
    15     7     8    1
    16     7     9    1
    17     9    10    2
    18     9    11   am
    19    11    12    1
    20    11    31    1
    21    12    23   ar
    22    12    13   ar
    23    13    14   ar
    24    13    32    1
    25    14    15   ar
    26    14    33    1
    27    15    16    1
    28    15    22   ar
    29    16    21    1
    30    16    17    2
    31    17    18    1
    32    17    34    1
    33    18    19    2
    34    18    35    1
    35    19    20    1
    36    19    21    1
    37    22    23   ar
@<TRIPOS>SUBSTRUCTURE
     1 ZINC000797321835        1 TEMP              0 ****  ****    0 ROOT


##########                                Name:    ZINC000534890536
##########                DOCK_Rotatable_Bonds:                   6
##########                         Heavy_Atoms:                  30
##########                    Molecular_Weight:             411.476
##########                DOCK_Rotatable_Bonds:                   6
##########                       Formal_Charge:          0.00999957
##########                     HBond_Acceptors:                   7
##########                        HBond_Donors:                   1
##########                         Heavy_Atoms:                  30
##########                          Grid_Score:          -30.523666
##########                     Grid_vdw_energy:          -28.614592
##########                      Grid_es_energy:           -1.909075
##########           Internal_energy_repulsive:           15.576323

@<TRIPOS>MOLECULE
ZINC000534890536
 56 59 1 0 0
SMALL
USER_CHARGES


@<TRIPOS>ATOM
      1 C1        -13.7049    2.3718   48.4024 C.3     1  ZINC000534890536    0.0300
      2 O2        -12.7579    2.4011   49.4722 O.3     1  ZINC000534890536   -0.3200
      3 C3        -12.7407    1.3316   50.3105 C.ar    1  ZINC000534890536    0.1300
      4 C4        -11.8512    1.2971   51.3746 C.ar    1  ZINC000534890536   -0.2100
      5 C5        -11.8361    0.2090   52.2255 C.ar    1  ZINC000534890536   -0.0700
      6 C6        -12.7062   -0.8452   52.0173 C.ar    1  ZINC000534890536   -0.1100
      7 C7        -12.6872   -2.0312   52.9469 C.3     1  ZINC000534890536   -0.0600
      8 H8        -11.9905   -2.7912   52.5931 H       1  ZINC000534890536    0.0900
      9 C9        -14.1111   -2.6215   53.1245 C.3     1  ZINC000534890536   -0.1200
     10 C10       -14.0390   -3.2848   54.5161 C.3     1  ZINC000534890536    0.1000
     11 N11       -12.9406   -2.6402   55.2506 N.am    1  ZINC000534890536   -0.6400
     12 C12       -12.5412   -2.9523   56.4995 C.2     1  ZINC000534890536    0.7300
     13 O13       -13.1046   -3.8368   57.1148 O.2     1  ZINC000534890536   -0.5700
     14 N14       -11.5172   -2.2840   57.0663 N.am    1  ZINC000534890536   -0.7300
     15 C15       -11.0841   -2.6221   58.4243 C.3     1  ZINC000534890536    0.1600
     16 H16       -11.7016   -3.4334   58.8099 H       1  ZINC000534890536    0.1200
     17 C17        -9.6199   -3.0673   58.3951 C.3     1  ZINC000534890536   -0.1300
     18 C18        -9.1094   -3.1494   59.8387 C.3     1  ZINC000534890536   -0.1300
     19 C19        -9.0554   -1.7362   60.4201 C.3     1  ZINC000534890536    0.1100
     20 N20       -10.3245   -1.0502   60.2122 N.am    1  ZINC000534890536   -0.5600
     21 C21       -10.6055    0.0662   61.0097 C.ar    1  ZINC000534890536    0.1000
     22 C22       -11.4941   -0.0423   62.0700 C.ar    1  ZINC000534890536   -0.0800
     23 C23       -11.7692    1.0607   62.8555 C.ar    1  ZINC000534890536   -0.1200
     24 C24       -11.1610    2.2727   62.5866 C.ar    1  ZINC000534890536   -0.0800
     25 C25       -10.2747    2.3861   61.5308 C.ar    1  ZINC000534890536   -0.1500
     26 C26        -9.9904    1.2851   60.7442 C.ar    1  ZINC000534890536    0.1100
     27 F27        -9.1244    1.3956   59.7132 F       1  ZINC000534890536   -0.1300
     28 C28       -11.2327   -1.4182   59.3096 C.2     1  ZINC000534890536    0.5000
     29 O29       -12.2361   -0.7458   59.1976 O.2     1  ZINC000534890536   -0.5100
     30 C30       -12.3468   -1.5968   54.3943 C.3     1  ZINC000534890536    0.1300
     31 C31       -13.5940   -0.8130   50.9577 C.ar    1  ZINC000534890536   -0.0700
     32 C32       -13.6167    0.2752   50.1069 C.ar    1  ZINC000534890536   -0.1500
     33 H33       -13.5109    1.5062   47.7690 H       1  ZINC000534890536    0.0600
     34 H34       -14.7131    2.3040   48.8114 H       1  ZINC000534890536    0.0600
     35 H35       -13.6133    3.2828   47.8109 H       1  ZINC000534890536    0.1000
     36 H36       -11.1710    2.1198   51.5373 H       1  ZINC000534890536    0.1300
     37 H37       -11.1439    0.1815   53.0541 H       1  ZINC000534890536    0.1300
     38 H38       -14.8607   -1.8304   53.1128 H       1  ZINC000534890536    0.0800
     39 H39       -14.3197   -3.3636   52.3539 H       1  ZINC000534890536    0.0900
     40 H40       -14.9788   -3.1345   55.0475 H       1  ZINC000534890536    0.0700
     41 H41       -13.8379   -4.3507   54.4088 H       1  ZINC000534890536    0.0700
     42 H42       -11.0668   -1.5792   56.5750 H       1  ZINC000534890536    0.4000
     43 H43        -9.5434   -4.0465   57.9225 H       1  ZINC000534890536    0.0900
     44 H44        -9.0270   -2.3426   57.8369 H       1  ZINC000534890536    0.0800
     45 H45        -9.7871   -3.7633   60.4319 H       1  ZINC000534890536    0.0800
     46 H46        -8.1114   -3.5876   59.8493 H       1  ZINC000534890536    0.1000
     47 H47        -8.8479   -1.7938   61.4887 H       1  ZINC000534890536    0.0800
     48 H48        -8.2586   -1.1756   59.9313 H       1  ZINC000534890536    0.0700
     49 H49       -11.9705   -0.9883   62.2811 H       1  ZINC000534890536    0.1300
     50 H50       -12.4607    0.9761   63.6807 H       1  ZINC000534890536    0.1300
     51 H51       -11.3788    3.1330   63.2020 H       1  ZINC000534890536    0.1400
     52 H52        -9.8012    3.3344   61.3233 H       1  ZINC000534890536    0.1400
     53 H53       -11.2667   -1.5590   54.5361 H       1  ZINC000534890536    0.0800
     54 H54       -12.7932   -0.6267   54.6135 H       1  ZINC000534890536    0.0700
     55 H55       -14.2728   -1.6375   50.7974 H       1  ZINC000534890536    0.1300
     56 H56       -14.3103    0.3000   49.2795 H       1  ZINC000534890536    0.1300
@<TRIPOS>BOND
     1     1     2    1
     2     1    33    1
     3     1    34    1
     4     1    35    1
     5     2     3    1
     6     3    32   ar
     7     3     4   ar
     8     4     5   ar
     9     4    36    1
    10     5     6   ar
    11     5    37    1
    12     6     7    1
    13     6    31   ar
    14     7     8    1
    15     7    30    1
    16     7     9    1
    17     9    10    1
    18     9    38    1
    19     9    39    1
    20    10    11    1
    21    10    40    1
    22    10    41    1
    23    11    12   am
    24    11    30    1
    25    12    13    2
    26    12    14   am
    27    14    15    1
    28    14    42    1
    29    15    16    1
    30    15    28    1
    31    15    17    1
    32    17    18    1
    33    17    43    1
    34    17    44    1
    35    18    19    1
    36    18    45    1
    37    18    46    1
    38    19    20    1
    39    19    47    1
    40    19    48    1
    41    20    21    1
    42    20    28   am
    43    21    26   ar
    44    21    22   ar
    45    22    23   ar
    46    22    49    1
    47    23    24   ar
    48    23    50    1
    49    24    25   ar
    50    24    51    1
    51    25    26   ar
    52    25    52    1
    53    26    27    1
    54    28    29    2
    55    30    53    1
    56    30    54    1
    57    31    32   ar
    58    31    55    1
    59    32    56    1
@<TRIPOS>SUBSTRUCTURE
     1 ZINC000534890536        1 TEMP              0 ****  ****    0 ROOT


##########                                Name:    ZINC000443933644
##########                DOCK_Rotatable_Bonds:                   8
##########                         Heavy_Atoms:                  27
##########                    Molecular_Weight:             402.438
##########                DOCK_Rotatable_Bonds:                   8
##########                       Formal_Charge:          0.00999922
##########                     HBond_Acceptors:                   9
##########                        HBond_Donors:                   2
##########                         Heavy_Atoms:                  27
##########                          Grid_Score:          -30.518465
##########                     Grid_vdw_energy:          -26.463045
##########                      Grid_es_energy:           -4.055420
##########           Internal_energy_repulsive:           35.540188

@<TRIPOS>MOLECULE
ZINC000443933644
 48 49 1 0 0
SMALL
USER_CHARGES


@<TRIPOS>ATOM
      1 C1        -12.7265   -3.5070   55.9244 C.3     1  ZINC000443933644   -0.1500
      2 C2        -12.6812   -3.3874   57.4491 C.3     1  ZINC000443933644   -0.1400
      3 C3        -11.9398   -2.1070   57.8383 C.3     1  ZINC000443933644   -0.1000
      4 H4        -11.7628   -1.5044   56.9474 H       1  ZINC000443933644    0.1000
      5 C5        -10.6006   -2.4692   58.4834 C.3     1  ZINC000443933644   -0.1700
      6 C6        -12.7861   -1.3100   58.8331 C.3     1  ZINC000443933644    0.1200
      7 H7        -12.1707   -0.5402   59.2988 H       1  ZINC000443933644    0.1300
      8 N8        -13.3045   -2.2114   59.8652 N.am    1  ZINC000443933644   -1.1100
      9 S9        -13.9069   -1.5927   61.2782 S.o2    1  ZINC000443933644    2.6900
     10 O10       -14.8898   -0.6347   60.9100 O.2     1  ZINC000443933644   -0.9400
     11 O11       -14.1823   -2.7053   62.1182 O.2     1  ZINC000443933644   -0.9400
     12 C12       -12.6031   -0.6954   62.0526 C.ar    1  ZINC000443933644   -0.7000
     13 C13       -12.8893    0.1989   63.0978 C.ar    1  ZINC000443933644    0.0500
     14 C14       -14.2067    0.3970   63.5465 C.ar    1  ZINC000443933644   -0.1400
     15 C15       -14.4484    1.2707   64.5617 C.ar    1  ZINC000443933644   -0.0800
     16 C16       -13.4079    1.9742   65.1654 C.ar    1  ZINC000443933644   -0.1200
     17 C17       -12.1199    1.8078   64.7564 C.ar    1  ZINC000443933644   -0.0900
     18 C18       -11.8323    0.9146   63.7123 C.ar    1  ZINC000443933644   -0.0900
     19 C19       -10.5099    0.7162   63.2619 C.ar    1  ZINC000443933644    0.2300
     20 N20        -9.4529    1.4112   63.8526 N.am    1  ZINC000443933644   -0.6700
     21 C21        -8.5967    0.7676   64.6705 C.2     1  ZINC000443933644    0.5100
     22 C22        -7.4557    1.5178   65.3081 C.3     1  ZINC000443933644   -0.1700
     23 O23        -8.7444   -0.4154   64.8934 O.2     1  ZINC000443933644   -0.5100
     24 C24       -10.2711   -0.1700   62.2338 C.ar    1  ZINC000443933644   -0.1600
     25 C25       -11.3169   -0.8722   61.6423 C.ar    1  ZINC000443933644    0.0400
     26 C26       -13.9548   -0.6525   58.0965 C.3     1  ZINC000443933644    0.4300
     27 F27       -15.0988   -1.4458   58.2345 F       1  ZINC000443933644   -0.1700
     28 F28       -14.1965    0.6132   58.6412 F       1  ZINC000443933644   -0.1600
     29 F29       -13.6377   -0.5236   56.7400 F       1  ZINC000443933644   -0.1700
     30 H30       -13.2469   -2.6448   55.5076 H       1  ZINC000443933644    0.0500
     31 H31       -11.7100   -3.5423   55.5324 H       1  ZINC000443933644    0.0600
     32 H32       -13.2547   -4.4193   55.6471 H       1  ZINC000443933644    0.0600
     33 H33       -13.6976   -3.3522   57.8411 H       1  ZINC000443933644    0.0700
     34 H34       -12.1607   -4.2497   57.8659 H       1  ZINC000443933644    0.0900
     35 H35        -9.9528   -2.9335   57.7398 H       1  ZINC000443933644    0.0700
     36 H36       -10.1253   -1.5658   58.8660 H       1  ZINC000443933644    0.0600
     37 H37       -10.7693   -3.1662   59.3042 H       1  ZINC000443933644    0.0700
     38 H38       -13.2949   -3.1705   59.7209 H       1  ZINC000443933644    0.4300
     39 H39       -15.0231   -0.1411   63.0877 H       1  ZINC000443933644    0.1400
     40 H40       -15.4615    1.4213   64.9042 H       1  ZINC000443933644    0.1300
     41 H41       -13.6264    2.6617   65.9690 H       1  ZINC000443933644    0.1300
     42 H42       -11.3236    2.3602   65.2329 H       1  ZINC000443933644    0.1300
     43 H43        -9.3349    2.3574   63.6743 H       1  ZINC000443933644    0.4200
     44 H44        -7.4854    2.5607   64.9926 H       1  ZINC000443933644    0.0800
     45 H45        -7.5465    1.4635   66.3929 H       1  ZINC000443933644    0.1000
     46 H46        -6.5103    1.0717   64.9998 H       1  ZINC000443933644    0.1000
     47 H47        -9.2603   -0.3246   61.8862 H       1  ZINC000443933644    0.1500
     48 H48       -11.1059   -1.5615   60.8381 H       1  ZINC000443933644    0.1500
@<TRIPOS>BOND
     1     1     2    1
     2     1    30    1
     3     1    31    1
     4     1    32    1
     5     2     3    1
     6     2    33    1
     7     2    34    1
     8     3     4    1
     9     3     5    1
    10     3     6    1
    11     5    35    1
    12     5    36    1
    13     5    37    1
    14     6     7    1
    15     6     8    1
    16     6    26    1
    17     8     9   am
    18     8    38    1
    19     9    10    2
    20     9    11    2
    21     9    12    1
    22    12    25   ar
    23    12    13   ar
    24    13    18   ar
    25    13    14   ar
    26    14    15   ar
    27    14    39    1
    28    15    16   ar
    29    15    40    1
    30    16    17   ar
    31    16    41    1
    32    17    18   ar
    33    17    42    1
    34    18    19   ar
    35    19    20    1
    36    19    24   ar
    37    20    21   am
    38    20    43    1
    39    21    22    1
    40    21    23    2
    41    22    44    1
    42    22    45    1
    43    22    46    1
    44    24    25   ar
    45    24    47    1
    46    25    48    1
    47    26    27    1
    48    26    28    1
    49    26    29    1
@<TRIPOS>SUBSTRUCTURE
     1 ZINC000443933644        1 TEMP              0 ****  ****    0 ROOT


##########                                Name:    ZINC000482910431
##########                DOCK_Rotatable_Bonds:                   7
##########                         Heavy_Atoms:                  29
##########                    Molecular_Weight:             414.867
##########                DOCK_Rotatable_Bonds:                   7
##########                       Formal_Charge:          -0.0300001
##########                     HBond_Acceptors:                   8
##########                        HBond_Donors:                   2
##########                         Heavy_Atoms:                  29
##########                          Grid_Score:          -30.513065
##########                     Grid_vdw_energy:          -31.158724
##########                      Grid_es_energy:            0.645658
##########           Internal_energy_repulsive:           14.287433

@<TRIPOS>MOLECULE
ZINC000482910431
 49 51 1 0 0
SMALL
USER_CHARGES


@<TRIPOS>ATOM
      1 C1        -16.1999   -0.1386   48.9000 C.3     1  ZINC000482910431   -0.1500
      2 C2        -14.8180   -0.7502   49.1390 C.3     1  ZINC000482910431    0.0800
      3 C3        -14.5082   -1.7589   48.0310 C.3     1  ZINC000482910431   -0.1400
      4 C4        -13.8020    0.3149   49.1310 C.1     1  ZINC000482910431    0.2100
      5 N5        -13.0179    1.1369   49.1249 N.1     1  ZINC000482910431   -0.4300
      6 C6        -14.8021   -1.4495   50.4738 C.ar    1  ZINC000482910431   -0.1000
      7 C7        -13.6612   -1.4199   51.2545 C.ar    1  ZINC000482910431   -0.0900
      8 C8        -13.6434   -2.0594   52.4786 C.ar    1  ZINC000482910431   -0.1200
      9 C9        -14.7730   -2.7326   52.9250 C.ar    1  ZINC000482910431    0.1700
     10 N10       -14.7584   -3.3812   54.1650 N.am    1  ZINC000482910431   -0.6800
     11 C11       -14.8518   -2.6636   55.3019 C.2     1  ZINC000482910431    0.7100
     12 O12       -14.9486   -1.4527   55.2504 O.2     1  ZINC000482910431   -0.5500
     13 N13       -14.8378   -3.2883   56.4962 N.am    1  ZINC000482910431   -0.7300
     14 C14       -14.9375   -2.5081   57.7321 C.3     1  ZINC000482910431    0.1400
     15 H15       -15.6162   -1.6660   57.5969 H       1  ZINC000482910431    0.1400
     16 C16       -15.4117   -3.4033   58.9004 C.3     1  ZINC000482910431   -0.1400
     17 C17       -14.6014   -2.8310   60.0846 C.3     1  ZINC000482910431    0.0900
     18 N18       -13.4076   -2.2234   59.4850 N.am    1  ZINC000482910431   -0.5600
     19 C19       -12.2481   -1.8925   60.1958 C.ar    1  ZINC000482910431    0.2000
     20 C20       -12.2582   -0.8256   61.0844 C.ar    1  ZINC000482910431   -0.1600
     21 C21       -11.1131   -0.5000   61.7854 C.ar    1  ZINC000482910431   -0.0500
     22 C22        -9.9561   -1.2356   61.6033 C.ar    1  ZINC000482910431   -0.1000
     23 Cl23       -8.5191   -0.8234   62.4860 Cl      1  ZINC000482910431   -0.0500
     24 C24        -9.9424   -2.3017   60.7175 C.ar    1  ZINC000482910431    0.1400
     25 F25        -8.8112   -3.0192   60.5415 F       1  ZINC000482910431   -0.1200
     26 C26       -11.0879   -2.6343   60.0176 C.ar    1  ZINC000482910431   -0.1900
     27 C27       -13.5711   -2.0228   58.1635 C.2     1  ZINC000482910431    0.5000
     28 O28       -12.7425   -1.5292   57.4281 O.2     1  ZINC000482910431   -0.4800
     29 C29       -15.9172   -2.7605   52.1385 C.ar    1  ZINC000482910431   -0.1400
     30 C30       -15.9302   -2.1145   50.9179 C.ar    1  ZINC000482910431   -0.0900
     31 H31       -16.9522   -0.9273   48.9060 H       1  ZINC000482910431    0.0800
     32 H32       -16.4206    0.5800   49.6894 H       1  ZINC000482910431    0.0700
     33 H33       -16.2114    0.3672   47.9346 H       1  ZINC000482910431    0.0700
     34 H34       -14.5197   -1.2530   47.0655 H       1  ZINC000482910431    0.0700
     35 H35       -13.5237   -2.1946   48.2012 H       1  ZINC000482910431    0.0700
     36 H36       -15.2605   -2.5476   48.0369 H       1  ZINC000482910431    0.0800
     37 H37       -12.7828   -0.8964   50.9067 H       1  ZINC000482910431    0.1400
     38 H38       -12.7519   -2.0362   53.0877 H       1  ZINC000482910431    0.1400
     39 H39       -14.6811   -4.3473   54.2060 H       1  ZINC000482910431    0.4100
     40 H40       -14.7617   -4.2544   56.5372 H       1  ZINC000482910431    0.4000
     41 H41       -16.4825   -3.2895   59.0692 H       1  ZINC000482910431    0.1100
     42 H42       -15.1554   -4.4474   58.7207 H       1  ZINC000482910431    0.1000
     43 H43       -15.1850   -2.0757   60.6110 H       1  ZINC000482910431    0.0900
     44 H44       -14.3151   -3.6310   60.7673 H       1  ZINC000482910431    0.1000
     45 H45       -13.1609   -0.2502   61.2272 H       1  ZINC000482910431    0.1700
     46 H46       -11.1214    0.3302   62.4761 H       1  ZINC000482910431    0.1500
     47 H47       -11.0779   -3.4650   59.3276 H       1  ZINC000482910431    0.1500
     48 H48       -16.7973   -3.2832   52.4830 H       1  ZINC000482910431    0.1300
     49 H49       -16.8199   -2.1355   50.3059 H       1  ZINC000482910431    0.1300
@<TRIPOS>BOND
     1     1     2    1
     2     1    31    1
     3     1    32    1
     4     1    33    1
     5     2     3    1
     6     2     4    1
     7     2     6    1
     8     3    34    1
     9     3    35    1
    10     3    36    1
    11     4     5    3
    12     6    30   ar
    13     6     7   ar
    14     7     8   ar
    15     7    37    1
    16     8     9   ar
    17     8    38    1
    18     9    10    1
    19     9    29   ar
    20    10    11   am
    21    10    39    1
    22    11    12    2
    23    11    13   am
    24    13    14    1
    25    13    40    1
    26    14    15    1
    27    14    27    1
    28    14    16    1
    29    16    17    1
    30    16    41    1
    31    16    42    1
    32    17    18    1
    33    17    43    1
    34    17    44    1
    35    18    19    1
    36    18    27   am
    37    19    26   ar
    38    19    20   ar
    39    20    21   ar
    40    20    45    1
    41    21    22   ar
    42    21    46    1
    43    22    23    1
    44    22    24   ar
    45    24    25    1
    46    24    26   ar
    47    26    47    1
    48    27    28    2
    49    29    30   ar
    50    29    48    1
    51    30    49    1
@<TRIPOS>SUBSTRUCTURE
     1 ZINC000482910431        1 TEMP              0 ****  ****    0 ROOT


##########                                Name:    ZINC001060620810
##########                DOCK_Rotatable_Bonds:                   5
##########                         Heavy_Atoms:                  24
##########                    Molecular_Weight:             332.421
##########                DOCK_Rotatable_Bonds:                   5
##########                       Formal_Charge:           0.0299998
##########                     HBond_Acceptors:                   6
##########                        HBond_Donors:                   2
##########                         Heavy_Atoms:                  24
##########                          Grid_Score:          -30.501411
##########                     Grid_vdw_energy:          -30.205851
##########                      Grid_es_energy:           -0.295561
##########           Internal_energy_repulsive:            9.754535

@<TRIPOS>MOLECULE
ZINC001060620810
 49 52 1 0 0
SMALL
USER_CHARGES


@<TRIPOS>ATOM
      1 O1        -11.5773   -3.9660   57.6201 O.2     1  ZINC001060620810   -0.5400
      2 C2        -10.9750   -2.9321   57.4214 C.2     1  ZINC001060620810    0.5500
      3 N3        -11.0204   -2.3485   56.2074 N.am    1  ZINC001060620810   -0.7200
      4 C4        -11.7989   -2.9618   55.1284 C.3     1  ZINC001060620810    0.1400
      5 C5        -13.2281   -2.4166   55.1572 C.3     1  ZINC001060620810   -0.1300
      6 C6        -14.0411   -3.0570   54.0304 C.3     1  ZINC001060620810   -0.1300
      7 C7        -13.3955   -2.7251   52.6835 C.3     1  ZINC001060620810    0.1600
      8 N8        -13.3676   -1.2719   52.5002 N.pl3   1  ZINC001060620810   -0.6900
      9 C9        -13.4107   -0.7336   51.2245 C.ar    1  ZINC001060620810    0.5600
     10 N10       -13.0243    0.5198   51.0389 N.ar    1  ZINC001060620810   -0.5400
     11 C11       -13.0480    1.0637   49.8332 C.ar    1  ZINC001060620810    0.1700
     12 C12       -13.4946    0.3075   48.7586 C.ar    1  ZINC001060620810   -0.0700
     13 F13       -13.5366    0.8326   47.5145 F       1  ZINC001060620810   -0.1300
     14 C14       -13.8966   -1.0004   48.9906 C.ar    1  ZINC001060620810    0.1800
     15 N15       -13.8422   -1.4830   50.2213 N.ar    1  ZINC001060620810   -0.5500
     16 C16       -11.9663   -3.2704   52.6547 C.3     1  ZINC001060620810   -0.1200
     17 C17       -11.1534   -2.6299   53.7816 C.3     1  ZINC001060620810   -0.1300
     18 C18       -10.1757   -2.3003   58.5318 C.3     1  ZINC001060620810   -0.1500
     19 C19        -9.3666   -3.2574   59.3972 C.3     1  ZINC001060620810   -0.1500
     20 C20       -10.6286   -2.6272   59.9461 C.3     1  ZINC001060620810   -0.1100
     21 H21       -11.4841   -3.2937   60.0549 H       1  ZINC001060620810    0.1100
     22 C22       -10.4758   -1.6042   61.0673 C.3     1  ZINC001060620810   -0.0900
     23 C23       -10.3033   -0.1993   60.4896 C.3     1  ZINC001060620810   -0.1200
     24 C24        -9.1468   -0.2233   59.4836 C.3     1  ZINC001060620810   -0.1200
     25 C25        -9.6235   -0.9206   58.2095 C.3     1  ZINC001060620810   -0.0800
     26 H26       -10.5377   -1.5224   56.0481 H       1  ZINC001060620810    0.4000
     27 H27       -11.8197   -4.0431   55.2647 H       1  ZINC001060620810    0.0900
     28 H28       -13.6880   -2.6530   56.1167 H       1  ZINC001060620810    0.0700
     29 H29       -13.2073   -1.3353   55.0209 H       1  ZINC001060620810    0.0600
     30 H30       -15.0593   -2.6686   54.0508 H       1  ZINC001060620810    0.0700
     31 H31       -14.0619   -4.1383   54.1667 H       1  ZINC001060620810    0.0800
     32 H32       -13.9748   -3.1815   51.8807 H       1  ZINC001060620810    0.1000
     33 H33       -13.3190   -0.6867   53.2723 H       1  ZINC001060620810    0.4100
     34 H34       -12.7282    2.0849   49.6877 H       1  ZINC001060620810    0.1800
     35 H35       -14.2498   -1.6164   48.1769 H       1  ZINC001060620810    0.1800
     36 H36       -11.5065   -3.0340   51.6952 H       1  ZINC001060620810    0.0800
     37 H37       -11.9872   -4.3517   52.7911 H       1  ZINC001060620810    0.0900
     38 H38       -11.1326   -1.5487   53.6453 H       1  ZINC001060620810    0.0700
     39 H39       -10.1352   -3.0184   53.7611 H       1  ZINC001060620810    0.0800
     40 H40        -9.4080   -4.3181   59.1499 H       1  ZINC001060620810    0.1000
     41 H41        -8.4126   -2.9011   59.7860 H       1  ZINC001060620810    0.1100
     42 H42        -9.5935   -1.8652   61.6517 H       1  ZINC001060620810    0.0700
     43 H43       -11.3549   -1.6245   61.7114 H       1  ZINC001060620810    0.0700
     44 H44       -10.0752    0.5013   61.2928 H       1  ZINC001060620810    0.0700
     45 H45       -11.2207    0.1042   59.9852 H       1  ZINC001060620810    0.0700
     46 H46        -8.3046   -0.7707   59.9072 H       1  ZINC001060620810    0.0700
     47 H47        -8.8432    0.7973   59.2506 H       1  ZINC001060620810    0.0700
     48 H48        -8.7857   -1.0207   57.5193 H       1  ZINC001060620810    0.0700
     49 H49       -10.4045   -0.3206   57.7424 H       1  ZINC001060620810    0.0700
@<TRIPOS>BOND
     1     1     2    2
     2     2     3   am
     3     2    18    1
     4     3     4    1
     5     3    26    1
     6     4    17    1
     7     4     5    1
     8     4    27    1
     9     5     6    1
    10     5    28    1
    11     5    29    1
    12     6     7    1
    13     6    30    1
    14     6    31    1
    15     7     8    1
    16     7    16    1
    17     7    32    1
    18     8     9    1
    19     8    33    1
    20     9    15   ar
    21     9    10   ar
    22    10    11   ar
    23    11    12   ar
    24    11    34    1
    25    12    13    1
    26    12    14   ar
    27    14    15   ar
    28    14    35    1
    29    16    17    1
    30    16    36    1
    31    16    37    1
    32    17    38    1
    33    17    39    1
    34    18    20    1
    35    18    25    1
    36    18    19    1
    37    19    20    1
    38    19    40    1
    39    19    41    1
    40    20    21    1
    41    20    22    1
    42    22    23    1
    43    22    42    1
    44    22    43    1
    45    23    24    1
    46    23    44    1
    47    23    45    1
    48    24    25    1
    49    24    46    1
    50    24    47    1
    51    25    48    1
    52    25    49    1
@<TRIPOS>SUBSTRUCTURE
     1 ZINC001060620810        1 TEMP              0 ****  ****    0 ROOT


##########                                Name:    ZINC000291574087
##########                DOCK_Rotatable_Bonds:                   8
##########                         Heavy_Atoms:                  23
##########                    Molecular_Weight:             387.249
##########                DOCK_Rotatable_Bonds:                   8
##########                       Formal_Charge:          -0.0400007
##########                     HBond_Acceptors:                   6
##########                        HBond_Donors:                   2
##########                         Heavy_Atoms:                  23
##########                          Grid_Score:          -30.476284
##########                     Grid_vdw_energy:          -30.371338
##########                      Grid_es_energy:           -0.104946
##########           Internal_energy_repulsive:           23.331842

@<TRIPOS>MOLECULE
ZINC000291574087
 43 44 1 0 0
SMALL
USER_CHARGES


@<TRIPOS>ATOM
      1 C1        -14.3322   -2.0738   56.1950 C.3     1  ZINC000291574087    0.0200
      2 O2        -13.2409   -2.3951   57.0598 O.3     1  ZINC000291574087   -0.3700
      3 C3        -12.4616   -3.5103   56.6224 C.3     1  ZINC000291574087    0.1400
      4 C4        -13.2128   -4.8080   56.9267 C.3     1  ZINC000291574087   -0.1500
      5 C5        -11.1192   -3.5139   57.3565 C.3     1  ZINC000291574087    0.0900
      6 N6        -11.2494   -2.7768   58.6158 N.am    1  ZINC000291574087   -0.6900
      7 C7        -10.1522   -2.2878   59.2269 C.2     1  ZINC000291574087    0.5100
      8 O8         -9.0563   -2.4593   58.7347 O.2     1  ZINC000291574087   -0.5100
      9 C9        -10.2851   -1.5349   60.5098 C.2     1  ZINC000291574087    0.5100
     10 O10       -11.3691   -1.4381   61.0474 O.2     1  ZINC000291574087   -0.4900
     11 N11        -9.2013   -0.9630   61.0708 N.am    1  ZINC000291574087   -0.6400
     12 C12        -9.3257   -0.2579   62.2722 C.ar    1  ZINC000291574087    0.1300
     13 C13        -8.8017   -0.7842   63.4452 C.ar    1  ZINC000291574087   -0.1000
     14 C14        -8.9255   -0.0854   64.6306 C.ar    1  ZINC000291574087   -0.0400
     15 C15        -8.3568   -0.6569   65.9037 C.3     1  ZINC000291574087   -0.1300
     16 C16        -9.5705    1.1383   64.6507 C.ar    1  ZINC000291574087   -0.0900
     17 Br17       -9.7360    2.0909   66.2758 Br      1  ZINC000291574087   -0.0300
     18 C18       -10.0945    1.6671   63.4840 C.ar    1  ZINC000291574087   -0.1000
     19 C19        -9.9698    0.9754   62.2935 C.ar    1  ZINC000291574087    0.0700
     20 F20       -10.4812    1.4914   61.1545 F       1  ZINC000291574087   -0.1300
     21 C21       -12.2187   -3.4030   55.1157 C.3     1  ZINC000291574087   -0.1900
     22 C22       -11.2192   -2.3493   54.6345 C.3     1  ZINC000291574087   -0.1700
     23 C23       -10.8482   -3.8329   54.5886 C.3     1  ZINC000291574087   -0.1600
     24 H24       -14.8737   -1.2170   56.5963 H       1  ZINC000291574087    0.0900
     25 H25       -13.9505   -1.8303   55.2034 H       1  ZINC000291574087    0.0400
     26 H26       -15.0048   -2.9286   56.1257 H       1  ZINC000291574087    0.0500
     27 H27       -14.1692   -4.8055   56.4038 H       1  ZINC000291574087    0.0700
     28 H28       -12.6185   -5.6586   56.5931 H       1  ZINC000291574087    0.0800
     29 H29       -13.3859   -4.8845   58.0002 H       1  ZINC000291574087    0.0700
     30 H30       -10.8224   -4.5415   57.5659 H       1  ZINC000291574087    0.0900
     31 H31       -10.3630   -3.0370   56.7330 H       1  ZINC000291574087    0.0800
     32 H32       -12.1253   -2.6408   59.0098 H       1  ZINC000291574087    0.4200
     33 H33        -8.3350   -1.0404   60.6415 H       1  ZINC000291574087    0.4300
     34 H34        -8.2980   -1.7394   63.4312 H       1  ZINC000291574087    0.1600
     35 H35        -7.3270   -0.3207   66.0246 H       1  ZINC000291574087    0.0800
     36 H36        -8.9516   -0.3177   66.7518 H       1  ZINC000291574087    0.0800
     37 H37        -8.3803   -1.7455   65.8556 H       1  ZINC000291574087    0.0800
     38 H38       -10.5978    2.6225   63.5029 H       1  ZINC000291574087    0.1500
     39 H39       -13.0852   -3.6005   54.4845 H       1  ZINC000291574087    0.1100
     40 H40       -11.4281   -1.8531   53.6867 H       1  ZINC000291574087    0.1000
     41 H41       -10.7348   -1.7325   55.3914 H       1  ZINC000291574087    0.1000
     42 H42       -10.1196   -4.1921   55.3153 H       1  ZINC000291574087    0.1000
     43 H43       -10.8130   -4.3128   53.6106 H       1  ZINC000291574087    0.1000
@<TRIPOS>BOND
     1     1     2    1
     2     1    24    1
     3     1    25    1
     4     1    26    1
     5     2     3    1
     6     3     4    1
     7     3     5    1
     8     3    21    1
     9     4    27    1
    10     4    28    1
    11     4    29    1
    12     5     6    1
    13     5    30    1
    14     5    31    1
    15     6     7   am
    16     6    32    1
    17     7     8    2
    18     7     9    1
    19     9    10    2
    20     9    11   am
    21    11    12    1
    22    11    33    1
    23    12    19   ar
    24    12    13   ar
    25    13    14   ar
    26    13    34    1
    27    14    15    1
    28    14    16   ar
    29    15    35    1
    30    15    36    1
    31    15    37    1
    32    16    17    1
    33    16    18   ar
    34    18    19   ar
    35    18    38    1
    36    19    20    1
    37    21    23    1
    38    21    22    1
    39    21    39    1
    40    22    23    1
    41    22    40    1
    42    22    41    1
    43    23    42    1
    44    23    43    1
@<TRIPOS>SUBSTRUCTURE
     1 ZINC000291574087        1 TEMP              0 ****  ****    0 ROOT


##########                                Name:    ZINC001023407238
##########                DOCK_Rotatable_Bonds:                   7
##########                         Heavy_Atoms:                  25
##########                    Molecular_Weight:             349.387
##########                DOCK_Rotatable_Bonds:                   7
##########                       Formal_Charge:          -0.0300008
##########                     HBond_Acceptors:                   8
##########                        HBond_Donors:                   2
##########                         Heavy_Atoms:                  25
##########                          Grid_Score:          -30.470203
##########                     Grid_vdw_energy:          -31.345388
##########                      Grid_es_energy:            0.875185
##########           Internal_energy_repulsive:           10.441896

@<TRIPOS>MOLECULE
ZINC001023407238
 48 50 1 0 0
SMALL
USER_CHARGES


@<TRIPOS>ATOM
      1 C1        -12.6926    0.0252   62.4856 C.3     1  ZINC001023407238   -0.0900
      2 C2        -12.0918    1.0963   61.6121 C.2     1  ZINC001023407238   -0.1100
      3 C3        -10.8827    1.0329   60.9527 C.2     1  ZINC001023407238   -0.0500
      4 C4         -9.9422   -0.0925   60.9726 C.2     1  ZINC001023407238    0.6100
      5 O5         -9.0746   -0.1454   61.8243 O.2     1  ZINC001023407238   -0.5100
      6 N6        -10.0389   -1.0679   60.0476 N.am    1  ZINC001023407238   -0.6100
      7 C7         -9.1664   -2.2474   59.9516 C.3     1  ZINC001023407238    0.0800
      8 C8         -9.6692   -3.0937   58.7631 C.3     1  ZINC001023407238    0.0900
      9 H9         -9.0978   -2.8709   57.8620 H       1  ZINC001023407238    0.0800
     10 O10        -9.6017   -4.4875   59.0706 O.3     1  ZINC001023407238   -0.5500
     11 C11       -11.1425   -2.6328   58.6069 C.3     1  ZINC001023407238    0.1400
     12 H12       -11.7922   -3.1569   59.3078 H       1  ZINC001023407238    0.1200
     13 N13       -11.6062   -2.8142   57.2291 N.am    1  ZINC001023407238   -0.7200
     14 C14       -12.1581   -3.9847   56.8524 C.2     1  ZINC001023407238    0.5200
     15 O15       -12.2696   -4.8882   57.6538 O.2     1  ZINC001023407238   -0.5300
     16 C16       -12.6367   -4.1707   55.4356 C.3     1  ZINC001023407238   -0.1300
     17 C17       -11.5376   -3.7348   54.4647 C.3     1  ZINC001023407238   -0.1100
     18 H18       -10.5807   -4.1787   54.7396 H       1  ZINC001023407238    0.1100
     19 C19       -11.9137   -4.0948   53.0094 C.3     1  ZINC001023407238    0.0600
     20 O20       -11.3659   -3.0039   52.2115 O.3     1  ZINC001023407238   -0.3500
     21 C21       -11.3680   -1.8698   52.9265 C.2     1  ZINC001023407238    0.4800
     22 O22       -11.3221   -0.7555   52.4615 O.2     1  ZINC001023407238   -0.4600
     23 C23       -11.4332   -2.1944   54.4072 C.3     1  ZINC001023407238   -0.1800
     24 C24       -11.0410   -1.1321   58.9682 C.3     1  ZINC001023407238    0.1000
     25 N25       -10.7190    2.2181   60.2719 N.pl3   1  ZINC001023407238   -0.4200
     26 C26        -9.5676    2.5726   59.4384 C.3     1  ZINC001023407238    0.0700
     27 C27       -11.8004    3.0023   60.5011 C.2     1  ZINC001023407238    0.0100
     28 C28       -12.6584    2.3391   61.3128 C.2     1  ZINC001023407238   -0.2000
     29 H29       -13.3017   -0.6419   61.8755 H       1  ZINC001023407238    0.0600
     30 H30       -11.8950   -0.5450   62.9619 H       1  ZINC001023407238    0.0600
     31 H31       -13.3157    0.4878   63.2511 H       1  ZINC001023407238    0.0700
     32 H32        -8.1376   -1.9339   59.7745 H       1  ZINC001023407238    0.0800
     33 H33        -9.2260   -2.8284   60.8719 H       1  ZINC001023407238    0.0800
     34 H34        -9.4291   -4.6767   60.0031 H       1  ZINC001023407238    0.3900
     35 H35       -11.5160   -2.0920   56.5879 H       1  ZINC001023407238    0.4100
     36 H36       -12.8746   -5.2210   55.2673 H       1  ZINC001023407238    0.1000
     37 H37       -13.5281   -3.5654   55.2708 H       1  ZINC001023407238    0.1100
     38 H38       -11.4585   -5.0425   52.7219 H       1  ZINC001023407238    0.1200
     39 H39       -12.9969   -4.1421   52.8967 H       1  ZINC001023407238    0.0800
     40 H40       -12.3159   -1.7394   54.8567 H       1  ZINC001023407238    0.1100
     41 H41       -10.5299   -1.8508   54.9111 H       1  ZINC001023407238    0.1200
     42 H42       -12.0042   -0.7600   59.3176 H       1  ZINC001023407238    0.0900
     43 H43       -10.7008   -0.5567   58.1072 H       1  ZINC001023407238    0.0800
     44 H44        -9.7848    2.3324   58.3976 H       1  ZINC001023407238    0.0800
     45 H45        -9.3672    3.6401   59.5307 H       1  ZINC001023407238    0.0900
     46 H46        -8.6942    2.0093   59.7667 H       1  ZINC001023407238    0.0800
     47 H47       -11.9546    3.9926   60.0991 H       1  ZINC001023407238    0.1700
     48 H48       -13.6082    2.7077   61.6711 H       1  ZINC001023407238    0.1400
@<TRIPOS>BOND
     1     1     2    1
     2     1    29    1
     3     1    30    1
     4     1    31    1
     5     2    28    1
     6     2     3    2
     7     3     4    1
     8     3    25    1
     9     4     5    2
    10     4     6   am
    11     6    24    1
    12     6     7    1
    13     7     8    1
    14     7    32    1
    15     7    33    1
    16     8     9    1
    17     8    10    1
    18     8    11    1
    19    10    34    1
    20    11    12    1
    21    11    13    1
    22    11    24    1
    23    13    14   am
    24    13    35    1
    25    14    15    2
    26    14    16    1
    27    16    17    1
    28    16    36    1
    29    16    37    1
    30    17    18    1
    31    17    23    1
    32    17    19    1
    33    19    20    1
    34    19    38    1
    35    19    39    1
    36    20    21    1
    37    21    22    2
    38    21    23    1
    39    23    40    1
    40    23    41    1
    41    24    42    1
    42    24    43    1
    43    25    26    1
    44    25    27    1
    45    26    44    1
    46    26    45    1
    47    26    46    1
    48    27    28    2
    49    27    47    1
    50    28    48    1
@<TRIPOS>SUBSTRUCTURE
     1 ZINC001023407238        1 TEMP              0 ****  ****    0 ROOT


##########                                Name:    ZINC001002468398
##########                DOCK_Rotatable_Bonds:                   7
##########                         Heavy_Atoms:                  24
##########                    Molecular_Weight:             341.358
##########                DOCK_Rotatable_Bonds:                   7
##########                       Formal_Charge:           0.0100001
##########                     HBond_Acceptors:                   8
##########                        HBond_Donors:                   0
##########                         Heavy_Atoms:                  24
##########                          Grid_Score:          -30.467083
##########                     Grid_vdw_energy:          -29.843966
##########                      Grid_es_energy:           -0.623118
##########           Internal_energy_repulsive:           16.965765

@<TRIPOS>MOLECULE
ZINC001002468398
 45 47 1 0 0
SMALL
USER_CHARGES


@<TRIPOS>ATOM
      1 C1        -15.6858    0.6104   58.6284 C.3     1  ZINC001002468398   -0.1400
      2 C2        -15.0194    0.6107   60.0057 C.3     1  ZINC001002468398   -0.0500
      3 C3        -14.8364   -0.8095   60.4754 C.2     1  ZINC001002468398    0.0500
      4 C4        -13.8394   -1.2757   61.2759 C.2     1  ZINC001002468398   -0.0800
      5 C5        -12.7338   -0.4860   61.8478 C.2     1  ZINC001002468398    0.6000
      6 O6        -12.8579    0.0302   62.9420 O.2     1  ZINC001002468398   -0.5300
      7 N7        -11.5856   -0.3361   61.1583 N.am    1  ZINC001002468398   -0.6000
      8 C8        -10.4870    0.4487   61.7269 C.3     1  ZINC001002468398    0.0900
      9 C9        -11.4361   -0.9578   59.8403 C.3     1  ZINC001002468398    0.1000
     10 C10       -10.9623   -2.4028   60.0089 C.3     1  ZINC001002468398    0.1300
     11 H11       -11.6141   -2.9274   60.7076 H       1  ZINC001002468398    0.0800
     12 C12        -9.5101   -2.4216   60.5305 C.3     1  ZINC001002468398   -0.1300
     13 C13        -8.8787   -3.6099   59.7582 C.3     1  ZINC001002468398   -0.1300
     14 C14        -9.5899   -3.5022   58.3862 C.3     1  ZINC001002468398    0.1000
     15 N15       -10.9709   -3.0869   58.7075 N.am    1  ZINC001002468398   -0.6100
     16 C16       -12.0547   -3.2989   57.9349 C.2     1  ZINC001002468398    0.5600
     17 O17       -13.1448   -2.9123   58.3001 O.2     1  ZINC001002468398   -0.5100
     18 C18       -11.9121   -4.0160   56.6171 C.3     1  ZINC001002468398   -0.2000
     19 H19       -11.8111   -5.0995   56.6801 H       1  ZINC001002468398    0.1500
     20 C20       -11.1493   -3.2990   55.5015 C.3     1  ZINC001002468398   -0.1500
     21 C21       -12.6706   -3.4459   55.4169 C.3     1  ZINC001002468398    0.2300
     22 F22       -13.1809   -4.3550   54.4839 F       1  ZINC001002468398   -0.1500
     23 F23       -13.4430   -2.2984   55.6265 F       1  ZINC001002468398   -0.1400
     24 N24       -14.0556   -2.6079   61.4495 N.2     1  ZINC001002468398   -0.4600
     25 C25       -15.1257   -2.9406   60.7919 C.2     1  ZINC001002468398    0.1700
     26 O26       -15.6290   -1.8545   60.1885 O.3     1  ZINC001002468398   -0.2000
     27 H27       -15.0562    0.0719   57.9202 H       1  ZINC001002468398    0.0600
     28 H28       -16.6578    0.1217   58.6952 H       1  ZINC001002468398    0.0600
     29 H29       -15.8182    1.6377   58.2887 H       1  ZINC001002468398    0.0700
     30 H30       -14.0475    1.0995   59.9390 H       1  ZINC001002468398    0.1200
     31 H31       -15.6491    1.1492   60.7139 H       1  ZINC001002468398    0.0900
     32 H32       -10.1331   -0.0299   62.6401 H       1  ZINC001002468398    0.0700
     33 H33        -9.6706    0.5058   61.0069 H       1  ZINC001002468398    0.0700
     34 H34       -10.8396    1.4541   61.9568 H       1  ZINC001002468398    0.0700
     35 H35       -12.3955   -0.9480   59.3229 H       1  ZINC001002468398    0.0900
     36 H36       -10.7030   -0.4008   59.2568 H       1  ZINC001002468398    0.0900
     37 H37        -9.0007   -1.4892   60.2870 H       1  ZINC001002468398    0.1000
     38 H38        -9.4886   -2.6048   61.6048 H       1  ZINC001002468398    0.0800
     39 H39        -7.8020   -3.4786   59.6514 H       1  ZINC001002468398    0.0900
     40 H40        -9.1087   -4.5581   60.2441 H       1  ZINC001002468398    0.0800
     41 H41        -9.1020   -2.7522   57.7638 H       1  ZINC001002468398    0.0800
     42 H42        -9.5933   -4.4695   57.8837 H       1  ZINC001002468398    0.0800
     43 H43       -10.7504   -2.3085   55.7206 H       1  ZINC001002468398    0.1300
     44 H44       -10.5465   -3.9107   54.8302 H       1  ZINC001002468398    0.1400
     45 H45       -15.5459   -3.9343   60.7429 H       1  ZINC001002468398    0.2600
@<TRIPOS>BOND
     1     1     2    1
     2     1    27    1
     3     1    28    1
     4     1    29    1
     5     2     3    1
     6     2    30    1
     7     2    31    1
     8     3    26    1
     9     3     4    2
    10     4     5    1
    11     4    24    1
    12     5     6    2
    13     5     7   am
    14     7     8    1
    15     7     9    1
    16     8    32    1
    17     8    33    1
    18     8    34    1
    19     9    10    1
    20     9    35    1
    21     9    36    1
    22    10    11    1
    23    10    15    1
    24    10    12    1
    25    12    13    1
    26    12    37    1
    27    12    38    1
    28    13    14    1
    29    13    39    1
    30    13    40    1
    31    14    15    1
    32    14    41    1
    33    14    42    1
    34    15    16   am
    35    16    17    2
    36    16    18    1
    37    18    19    1
    38    18    21    1
    39    18    20    1
    40    20    21    1
    41    20    43    1
    42    20    44    1
    43    21    22    1
    44    21    23    1
    45    24    25    2
    46    25    26    1
    47    25    45    1
@<TRIPOS>SUBSTRUCTURE
     1 ZINC001002468398        1 TEMP              0 ****  ****    0 ROOT


##########                                Name:    ZINC000517001504
##########                DOCK_Rotatable_Bonds:                   5
##########                         Heavy_Atoms:                  29
##########                    Molecular_Weight:             403.401
##########                DOCK_Rotatable_Bonds:                   5
##########                       Formal_Charge:          -0.0200002
##########                     HBond_Acceptors:                   7
##########                        HBond_Donors:                   0
##########                         Heavy_Atoms:                  29
##########                          Grid_Score:          -30.456041
##########                     Grid_vdw_energy:          -30.519831
##########                      Grid_es_energy:            0.063790
##########           Internal_energy_repulsive:           34.451031

@<TRIPOS>MOLECULE
ZINC000517001504
 49 52 1 0 0
SMALL
USER_CHARGES


@<TRIPOS>ATOM
      1 O1        -13.3474   -1.1046   58.6755 O.2     1  ZINC000517001504   -0.5200
      2 C2        -12.3659   -1.6393   58.2046 C.2     1  ZINC000517001504    0.5400
      3 N3        -11.1649   -1.4845   58.7964 N.am    1  ZINC000517001504   -0.6100
      4 C4         -9.9612   -2.1283   58.2470 C.3     1  ZINC000517001504    0.0600
      5 C5         -9.2540   -2.8788   59.3812 C.3     1  ZINC000517001504    0.0500
      6 O6         -9.0517   -1.9880   60.4808 O.3     1  ZINC000517001504   -0.3700
      7 C7        -10.2599   -1.4881   61.0589 C.3     1  ZINC000517001504    0.1200
      8 H8        -10.8799   -2.3230   61.3855 H       1  ZINC000517001504    0.0800
      9 C9         -9.9283   -0.6146   62.2413 C.ar    1  ZINC000517001504   -0.0600
     10 C10       -10.9047    0.1850   62.8054 C.ar    1  ZINC000517001504   -0.0900
     11 C11       -10.6005    0.9862   63.8900 C.ar    1  ZINC000517001504   -0.0700
     12 C12        -9.3200    0.9876   64.4108 C.ar    1  ZINC000517001504   -0.1800
     13 C13        -8.9882    1.8615   65.5929 C.3     1  ZINC000517001504    0.5100
     14 F14        -7.6702    2.3169   65.4806 F       1  ZINC000517001504   -0.1800
     15 F15        -9.8590    2.9559   65.6227 F       1  ZINC000517001504   -0.1800
     16 F16        -9.1273    1.1225   66.7727 F       1  ZINC000517001504   -0.1800
     17 C17        -8.3439    0.1871   63.8475 C.ar    1  ZINC000517001504   -0.0700
     18 C18        -8.6492   -0.6171   62.7653 C.ar    1  ZINC000517001504   -0.1000
     19 C19       -11.0177   -0.6617   60.0074 C.3     1  ZINC000517001504    0.0900
     20 C20       -12.4904   -2.4819   56.9614 C.3     1  ZINC000517001504   -0.0600
     21 C21       -11.6984   -1.9355   55.8015 C.ar    1  ZINC000517001504   -0.0700
     22 C22       -11.5209   -2.7009   54.6642 C.ar    1  ZINC000517001504   -0.1200
     23 C23       -10.7945   -2.1997   53.6002 C.ar    1  ZINC000517001504   -0.1100
     24 C24       -10.2460   -0.9329   53.6734 C.ar    1  ZINC000517001504   -0.1100
     25 C25       -10.4244   -0.1672   54.8104 C.ar    1  ZINC000517001504   -0.1100
     26 C26       -11.1544   -0.6667   55.8726 C.ar    1  ZINC000517001504   -0.1000
     27 C27       -12.2698   -3.9841   57.2091 C.3     1  ZINC000517001504   -0.1600
     28 C28       -13.7606   -4.0724   57.4690 C.2     1  ZINC000517001504    0.3600
     29 O29       -14.4880   -4.8051   58.0953 O.2     1  ZINC000517001504   -0.4100
     30 C30       -13.9424   -2.8420   56.6025 C.3     1  ZINC000517001504   -0.1900
     31 H31       -10.2457   -2.8306   57.4634 H       1  ZINC000517001504    0.1000
     32 H32        -9.2942   -1.3701   57.8367 H       1  ZINC000517001504    0.0800
     33 H33        -9.8703   -3.7188   59.7017 H       1  ZINC000517001504    0.0600
     34 H34        -8.2905   -3.2470   59.0289 H       1  ZINC000517001504    0.1100
     35 H35       -11.9051    0.1839   62.3986 H       1  ZINC000517001504    0.1400
     36 H36       -11.3632    1.6115   64.3303 H       1  ZINC000517001504    0.1400
     37 H37        -7.3436    0.1878   64.2546 H       1  ZINC000517001504    0.1400
     38 H38        -7.8865   -1.2426   62.3253 H       1  ZINC000517001504    0.1400
     39 H39       -10.4556    0.2432   59.7769 H       1  ZINC000517001504    0.0800
     40 H40       -12.0027   -0.3951   60.3903 H       1  ZINC000517001504    0.1100
     41 H41       -11.9494   -3.6906   54.6071 H       1  ZINC000517001504    0.1300
     42 H42       -10.6552   -2.7980   52.7119 H       1  ZINC000517001504    0.1300
     43 H43        -9.6780   -0.5417   52.8424 H       1  ZINC000517001504    0.1300
     44 H44        -9.9956    0.8224   54.8677 H       1  ZINC000517001504    0.1300
     45 H45       -11.2937   -0.0684   56.7609 H       1  ZINC000517001504    0.1200
     46 H46       -11.9470   -4.5309   56.3231 H       1  ZINC000517001504    0.1300
     47 H47       -11.6593   -4.1979   58.0864 H       1  ZINC000517001504    0.1100
     48 H48       -14.6770   -2.1372   56.9919 H       1  ZINC000517001504    0.1000
     49 H49       -14.0888   -3.0684   55.5464 H       1  ZINC000517001504    0.1400
@<TRIPOS>BOND
     1     1     2    2
     2     2     3   am
     3     2    20    1
     4     3    19    1
     5     3     4    1
     6     4     5    1
     7     4    31    1
     8     4    32    1
     9     5     6    1
    10     5    33    1
    11     5    34    1
    12     6     7    1
    13     7     8    1
    14     7     9    1
    15     7    19    1
    16     9    18   ar
    17     9    10   ar
    18    10    11   ar
    19    10    35    1
    20    11    12   ar
    21    11    36    1
    22    12    13    1
    23    12    17   ar
    24    13    14    1
    25    13    15    1
    26    13    16    1
    27    17    18   ar
    28    17    37    1
    29    18    38    1
    30    19    39    1
    31    19    40    1
    32    20    30    1
    33    20    21    1
    34    20    27    1
    35    21    26   ar
    36    21    22   ar
    37    22    23   ar
    38    22    41    1
    39    23    24   ar
    40    23    42    1
    41    24    25   ar
    42    24    43    1
    43    25    26   ar
    44    25    44    1
    45    26    45    1
    46    27    28    1
    47    27    46    1
    48    27    47    1
    49    28    29    2
    50    28    30    1
    51    30    48    1
    52    30    49    1
@<TRIPOS>SUBSTRUCTURE
     1 ZINC000517001504        1 TEMP              0 ****  ****    0 ROOT


##########                                Name:    ZINC000444205493
##########                DOCK_Rotatable_Bonds:                   4
##########                         Heavy_Atoms:                  24
##########                    Molecular_Weight:             415.351
##########                DOCK_Rotatable_Bonds:                   4
##########                       Formal_Charge:         -0.00999995
##########                     HBond_Acceptors:                   6
##########                        HBond_Donors:                   1
##########                         Heavy_Atoms:                  24
##########                          Grid_Score:          -30.449450
##########                     Grid_vdw_energy:          -29.149315
##########                      Grid_es_energy:           -1.300135
##########           Internal_energy_repulsive:            5.715546

@<TRIPOS>MOLECULE
ZINC000444205493
 47 49 1 0 0
SMALL
USER_CHARGES


@<TRIPOS>ATOM
      1 C1         -4.7235    2.0383   50.7063 C.3     1  ZINC000444205493   -0.1700
      2 C2         -6.0916    1.4187   50.8304 C.2     1  ZINC000444205493    0.5100
      3 O3         -6.8457    1.4185   49.8805 O.2     1  ZINC000444205493   -0.5100
      4 N4         -6.4772    0.8648   51.9971 N.am    1  ZINC000444205493   -0.6800
      5 C5         -7.7478    0.2893   52.1123 C.ar    1  ZINC000444205493    0.2300
      6 C6         -7.9059   -1.0822   51.9682 C.ar    1  ZINC000444205493   -0.1400
      7 C7         -9.1613   -1.6474   52.0830 C.ar    1  ZINC000444205493    0.0200
      8 C8        -10.2600   -0.8487   52.3408 C.ar    1  ZINC000444205493   -0.6900
      9 S9        -11.8593   -1.5739   52.4858 S.o2    1  ZINC000444205493    2.7100
     10 O10       -12.7442   -0.7459   51.7439 O.2     1  ZINC000444205493   -0.9500
     11 O11       -11.6952   -2.9621   52.2295 O.2     1  ZINC000444205493   -0.9500
     12 N12       -12.3152   -1.4422   54.0724 N.am    1  ZINC000444205493   -1.0100
     13 C13       -12.4695   -0.1807   54.8213 C.3     1  ZINC000444205493    0.1200
     14 C14       -13.4563   -0.5153   55.9701 C.3     1  ZINC000444205493   -0.1200
     15 C15       -13.0451   -1.9594   56.3165 C.3     1  ZINC000444205493   -0.0700
     16 C16       -11.8808   -1.9715   57.3124 C.3     1  ZINC000444205493   -0.1100
     17 C17       -12.5653   -2.2107   58.6839 C.3     1  ZINC000444205493   -0.1200
     18 C18       -13.7067   -3.1988   58.3329 C.3     1  ZINC000444205493   -0.1000
     19 H19       -13.3241   -4.2176   58.2724 H       1  ZINC000444205493    0.0700
     20 C20       -14.8289   -3.1103   59.3690 C.3     1  ZINC000444205493   -0.1500
     21 C21       -14.2063   -2.7258   56.9489 C.3     1  ZINC000444205493   -0.1100
     22 C22       -12.6406   -2.5651   54.9684 C.3     1  ZINC000444205493    0.1300
     23 C23       -10.1066    0.5180   52.4855 C.ar    1  ZINC000444205493    0.0300
     24 C24        -8.8531    1.0891   52.3771 C.ar    1  ZINC000444205493   -0.1500
     25 Br25       -8.6438    2.9580   52.5750 Br      1  ZINC000444205493   -0.0300
     26 H26        -4.5928    2.4313   49.6981 H       1  ZINC000444205493    0.1000
     27 H27        -4.6250    2.8492   51.4280 H       1  ZINC000444205493    0.1000
     28 H28        -3.9631    1.2825   50.9031 H       1  ZINC000444205493    0.1000
     29 H29        -5.8741    0.8651   52.7568 H       1  ZINC000444205493    0.4200
     30 H30        -7.0484   -1.7069   51.7661 H       1  ZINC000444205493    0.1600
     31 H31        -9.2846   -2.7145   51.9709 H       1  ZINC000444205493    0.1500
     32 H32       -11.5096    0.1388   55.2272 H       1  ZINC000444205493    0.0800
     33 H33       -12.8861    0.5938   54.1773 H       1  ZINC000444205493    0.0800
     34 H34       -13.3055    0.1490   56.8210 H       1  ZINC000444205493    0.0900
     35 H35       -14.4887   -0.4753   55.6229 H       1  ZINC000444205493    0.0800
     36 H36       -11.1899   -2.7828   57.0832 H       1  ZINC000444205493    0.0700
     37 H37       -11.3621   -1.0129   57.3060 H       1  ZINC000444205493    0.0700
     38 H38       -11.8680   -2.6619   59.3897 H       1  ZINC000444205493    0.0700
     39 H39       -12.9696   -1.2796   59.0809 H       1  ZINC000444205493    0.0700
     40 H40       -15.2125   -2.0906   59.4030 H       1  ZINC000444205493    0.0500
     41 H41       -15.6332   -3.7921   59.0927 H       1  ZINC000444205493    0.0500
     42 H42       -14.4405   -3.3852   60.3497 H       1  ZINC000444205493    0.0500
     43 H43       -15.0689   -2.0698   57.0658 H       1  ZINC000444205493    0.0700
     44 H44       -14.4689   -3.5848   56.3314 H       1  ZINC000444205493    0.0700
     45 H45       -13.4663   -3.1473   54.5595 H       1  ZINC000444205493    0.0700
     46 H46       -11.7635   -3.2000   55.0940 H       1  ZINC000444205493    0.0800
     47 H47       -10.9668    1.1392   52.6871 H       1  ZINC000444205493    0.1500
@<TRIPOS>BOND
     1     1     2    1
     2     1    26    1
     3     1    27    1
     4     1    28    1
     5     2     3    2
     6     2     4   am
     7     4     5    1
     8     4    29    1
     9     5    24   ar
    10     5     6   ar
    11     6     7   ar
    12     6    30    1
    13     7     8   ar
    14     7    31    1
    15     8     9    1
    16     8    23   ar
    17     9    10    2
    18     9    11    2
    19     9    12   am
    20    12    22    1
    21    12    13    1
    22    13    14    1
    23    13    32    1
    24    13    33    1
    25    14    15    1
    26    14    34    1
    27    14    35    1
    28    15    21    1
    29    15    16    1
    30    15    22    1
    31    16    17    1
    32    16    36    1
    33    16    37    1
    34    17    18    1
    35    17    38    1
    36    17    39    1
    37    18    19    1
    38    18    20    1
    39    18    21    1
    40    20    40    1
    41    20    41    1
    42    20    42    1
    43    21    43    1
    44    21    44    1
    45    22    45    1
    46    22    46    1
    47    23    24   ar
    48    23    47    1
    49    24    25    1
@<TRIPOS>SUBSTRUCTURE
     1 ZINC000444205493        1 TEMP              0 ****  ****    0 ROOT


##########                                Name:    ZINC000535362552
##########                DOCK_Rotatable_Bonds:                   5
##########                         Heavy_Atoms:                  26
##########                    Molecular_Weight:             416.228
##########                DOCK_Rotatable_Bonds:                   5
##########                       Formal_Charge:         -0.00999981
##########                     HBond_Acceptors:                   6
##########                        HBond_Donors:                   1
##########                         Heavy_Atoms:                  26
##########                          Grid_Score:          -30.422430
##########                     Grid_vdw_energy:          -29.565697
##########                      Grid_es_energy:           -0.856734
##########           Internal_energy_repulsive:           21.938635

@<TRIPOS>MOLECULE
ZINC000535362552
 40 43 1 0 0
SMALL
USER_CHARGES


@<TRIPOS>ATOM
      1 C1         -8.9844    2.3334   67.4856 C.3     1  ZINC000535362552    0.0300
      2 O2         -9.9118    3.4167   67.2125 O.3     1  ZINC000535362552   -0.3400
      3 C3        -10.4710    3.4494   65.9857 C.2     1  ZINC000535362552    0.5500
      4 O4        -11.2562    4.3323   65.6989 O.2     1  ZINC000535362552   -0.4800
      5 C5        -10.1317    2.4190   64.9967 C.2     1  ZINC000535362552   -0.0100
      6 C6        -10.5613    2.4009   63.7074 C.2     1  ZINC000535362552   -0.0900
      7 C7         -9.9790    1.2032   63.1033 C.ar    1  ZINC000535362552   -0.1300
      8 C8        -10.0373    0.6302   61.8309 C.ar    1  ZINC000535362552   -0.0600
      9 C9         -9.3504   -0.5427   61.5797 C.ar    1  ZINC000535362552    0.1200
     10 N10        -9.4028   -1.1243   60.3060 N.am    1  ZINC000535362552   -0.6700
     11 C11       -10.5023   -1.8010   59.9190 C.2     1  ZINC000535362552    0.5200
     12 O12       -11.4464   -1.9065   60.6732 O.2     1  ZINC000535362552   -0.5000
     13 C13       -10.5588   -2.4265   58.5492 C.3     1  ZINC000535362552   -0.1000
     14 H14       -10.2893   -1.7018   57.7807 H       1  ZINC000535362552    0.1300
     15 C15        -9.6495   -3.6758   58.4739 C.3     1  ZINC000535362552    0.0600
     16 O16       -10.3991   -4.5647   57.6283 O.3     1  ZINC000535362552   -0.2900
     17 C17       -11.7264   -4.2876   57.7511 C.ar    1  ZINC000535362552    0.1300
     18 C18       -12.8346   -5.0677   57.4317 C.ar    1  ZINC000535362552   -0.1300
     19 C19       -14.1094   -4.5795   57.6321 C.ar    1  ZINC000535362552   -0.0500
     20 C20       -14.2983   -3.3114   58.1513 C.ar    1  ZINC000535362552   -0.1200
     21 Br21      -16.0482   -2.6462   58.4185 Br      1  ZINC000535362552   -0.0400
     22 C22       -13.2012   -2.5311   58.4751 C.ar    1  ZINC000535362552   -0.0100
     23 C23       -11.9288   -3.0181   58.2796 C.ar    1  ZINC000535362552   -0.1600
     24 C24        -8.6054   -1.1482   62.5903 C.ar    1  ZINC000535362552   -0.0900
     25 C25        -8.5430   -0.5902   63.8478 C.ar    1  ZINC000535362552   -0.0900
     26 C26        -9.2257    0.5892   64.1217 C.ar    1  ZINC000535362552    0.0700
     27 O27        -9.3415    1.3500   65.2287 O.3     1  ZINC000535362552   -0.1700
     28 H28        -8.1508    2.3835   66.7852 H       1  ZINC000535362552    0.0700
     29 H29        -8.6086    2.4252   68.5047 H       1  ZINC000535362552    0.1100
     30 H30        -9.4976    1.3786   67.3722 H       1  ZINC000535362552    0.0700
     31 H31       -11.2032    3.1242   63.2266 H       1  ZINC000535362552    0.1800
     32 H32       -10.6152    1.1001   61.0489 H       1  ZINC000535362552    0.1400
     33 H33        -8.6479   -1.0398   59.7028 H       1  ZINC000535362552    0.4100
     34 H34        -8.6900   -3.4284   58.0198 H       1  ZINC000535362552    0.1200
     35 H35        -9.5087   -4.1112   59.4634 H       1  ZINC000535362552    0.0900
     36 H36       -12.6958   -6.0589   57.0257 H       1  ZINC000535362552    0.1400
     37 H37       -14.9642   -5.1904   57.3820 H       1  ZINC000535362552    0.1400
     38 H38       -13.3438   -1.5404   58.8808 H       1  ZINC000535362552    0.1400
     39 H39        -8.0719   -2.0645   62.3851 H       1  ZINC000535362552    0.1500
     40 H40        -7.9627   -1.0695   64.6223 H       1  ZINC000535362552    0.1500
@<TRIPOS>BOND
     1     1     2    1
     2     1    28    1
     3     1    29    1
     4     1    30    1
     5     2     3    1
     6     3     4    2
     7     3     5    1
     8     5    27    1
     9     5     6    2
    10     6     7    1
    11     6    31    1
    12     7    26   ar
    13     7     8   ar
    14     8     9   ar
    15     8    32    1
    16     9    10    1
    17     9    24   ar
    18    10    11   am
    19    10    33    1
    20    11    12    2
    21    11    13    1
    22    13    14    1
    23    13    23    1
    24    13    15    1
    25    15    16    1
    26    15    34    1
    27    15    35    1
    28    16    17    1
    29    17    23   ar
    30    17    18   ar
    31    18    19   ar
    32    18    36    1
    33    19    20   ar
    34    19    37    1
    35    20    21    1
    36    20    22   ar
    37    22    23   ar
    38    22    38    1
    39    24    25   ar
    40    24    39    1
    41    25    26   ar
    42    25    40    1
    43    26    27    1
@<TRIPOS>SUBSTRUCTURE
     1 ZINC000535362552        1 TEMP              0 ****  ****    0 ROOT


##########                                Name:    ZINC000763800048
##########                DOCK_Rotatable_Bonds:                   8
##########                         Heavy_Atoms:                  23
##########                    Molecular_Weight:             329.783
##########                DOCK_Rotatable_Bonds:                   8
##########                       Formal_Charge:           0.0199994
##########                     HBond_Acceptors:                   5
##########                        HBond_Donors:                   1
##########                         Heavy_Atoms:                  23
##########                          Grid_Score:          -30.401077
##########                     Grid_vdw_energy:          -29.720200
##########                      Grid_es_energy:           -0.680877
##########           Internal_energy_repulsive:           11.382641

@<TRIPOS>MOLECULE
ZINC000763800048
 39 40 1 0 0
SMALL
USER_CHARGES


@<TRIPOS>ATOM
      1 C1        -13.2527   -1.6387   51.2839 C.3     1  ZINC000763800048    0.0400
      2 O2        -12.3460   -0.6829   51.8945 O.3     1  ZINC000763800048   -0.3600
      3 C3        -11.1395   -1.1389   52.2658 C.2     1  ZINC000763800048    0.4600
      4 O4        -10.2345   -0.3628   52.4623 O.2     1  ZINC000763800048   -0.4900
      5 C5        -10.9135   -2.6189   52.4375 C.3     1  ZINC000763800048   -0.0700
      6 C6        -11.5736   -3.0835   53.7102 C.ar    1  ZINC000763800048   -0.0600
      7 C7        -12.5491   -4.0624   53.6645 C.ar    1  ZINC000763800048   -0.1200
      8 C8        -13.1575   -4.4916   54.8302 C.ar    1  ZINC000763800048   -0.1000
      9 C9        -12.7918   -3.9438   56.0439 C.ar    1  ZINC000763800048   -0.1100
     10 C10       -11.8117   -2.9605   56.0932 C.ar    1  ZINC000763800048    0.1500
     11 N11       -11.4389   -2.4038   57.3204 N.am    1  ZINC000763800048   -0.6700
     12 C12       -10.8956   -3.1828   58.2766 C.2     1  ZINC000763800048    0.5500
     13 O13       -10.7293   -4.3710   58.0718 O.2     1  ZINC000763800048   -0.5200
     14 C14       -10.5055   -2.6001   59.5610 C.2     1  ZINC000763800048   -0.2100
     15 C15       -10.2627   -1.2768   59.6553 C.2     1  ZINC000763800048   -0.0100
     16 C16        -9.8720   -0.6906   60.9472 C.ar    1  ZINC000763800048   -0.0800
     17 C17        -8.8951   -1.3103   61.7333 C.ar    1  ZINC000763800048   -0.0900
     18 C18        -8.5342   -0.7556   62.9424 C.ar    1  ZINC000763800048   -0.1100
     19 C19        -9.1371    0.4127   63.3799 C.ar    1  ZINC000763800048   -0.0200
     20 Cl20       -8.6767    1.1038   64.9043 Cl      1  ZINC000763800048   -0.0600
     21 C21       -10.1053    1.0322   62.6063 C.ar    1  ZINC000763800048   -0.1100
     22 C22       -10.4719    0.4919   61.3924 C.ar    1  ZINC000763800048   -0.0800
     23 C23       -11.1994   -2.5352   54.9214 C.ar    1  ZINC000763800048   -0.1300
     24 H24       -14.1894   -1.1414   51.0321 H       1  ZINC000763800048    0.1000
     25 H25       -12.8000   -2.0411   50.3776 H       1  ZINC000763800048    0.0600
     26 H26       -13.4493   -2.4511   51.9834 H       1  ZINC000763800048    0.0600
     27 H27       -11.3429   -3.1528   51.5898 H       1  ZINC000763800048    0.1200
     28 H28        -9.8435   -2.8196   52.4892 H       1  ZINC000763800048    0.1200
     29 H29       -12.8370   -4.4924   52.7167 H       1  ZINC000763800048    0.1200
     30 H30       -13.9196   -5.2558   54.7911 H       1  ZINC000763800048    0.1300
     31 H31       -13.2673   -4.2792   56.9536 H       1  ZINC000763800048    0.1400
     32 H32       -11.5715   -1.4568   57.4837 H       1  ZINC000763800048    0.4100
     33 H33       -10.4120   -3.2297   60.4335 H       1  ZINC000763800048    0.1300
     34 H34       -10.3549   -0.6473   58.7825 H       1  ZINC000763800048    0.1400
     35 H35        -8.4248   -2.2214   61.3938 H       1  ZINC000763800048    0.1400
     36 H36        -7.7800   -1.2329   63.5504 H       1  ZINC000763800048    0.1400
     37 H37       -10.5710    1.9426   62.9536 H       1  ZINC000763800048    0.1400
     38 H38       -11.2266    0.9760   60.7903 H       1  ZINC000763800048    0.1400
     39 H39       -10.4368   -1.7712   54.9564 H       1  ZINC000763800048    0.1300
@<TRIPOS>BOND
     1     1     2    1
     2     1    24    1
     3     1    25    1
     4     1    26    1
     5     2     3    1
     6     3     4    2
     7     3     5    1
     8     5     6    1
     9     5    27    1
    10     5    28    1
    11     6    23   ar
    12     6     7   ar
    13     7     8   ar
    14     7    29    1
    15     8     9   ar
    16     8    30    1
    17     9    10   ar
    18     9    31    1
    19    10    11    1
    20    10    23   ar
    21    11    12   am
    22    11    32    1
    23    12    13    2
    24    12    14    1
    25    14    15    2
    26    14    33    1
    27    15    16    1
    28    15    34    1
    29    16    22   ar
    30    16    17   ar
    31    17    18   ar
    32    17    35    1
    33    18    19   ar
    34    18    36    1
    35    19    20    1
    36    19    21   ar
    37    21    22   ar
    38    21    37    1
    39    22    38    1
    40    23    39    1
@<TRIPOS>SUBSTRUCTURE
     1 ZINC000763800048        1 TEMP              0 ****  ****    0 ROOT


##########                                Name:    ZINC000302023461
##########                DOCK_Rotatable_Bonds:                   3
##########                         Heavy_Atoms:                  25
##########                    Molecular_Weight:             356.362
##########                DOCK_Rotatable_Bonds:                   3
##########                       Formal_Charge:        -2.08616e-07
##########                     HBond_Acceptors:                   9
##########                        HBond_Donors:                   1
##########                         Heavy_Atoms:                  25
##########                          Grid_Score:          -30.392769
##########                     Grid_vdw_energy:          -29.689116
##########                      Grid_es_energy:           -0.703653
##########           Internal_energy_repulsive:           20.061703

@<TRIPOS>MOLECULE
ZINC000302023461
 37 40 1 0 0
SMALL
USER_CHARGES


@<TRIPOS>ATOM
      1 O1        -11.5099   -4.4036   53.6154 O.2     1  ZINC000302023461   -0.1600
      2 N2        -11.3576   -3.6953   54.5946 N.pl3   1  ZINC000302023461    0.0200
      3 O3        -10.4477   -2.8862   54.6254 O.2     1  ZINC000302023461   -0.1300
      4 C4        -12.2822   -3.8137   55.7446 C.ar    1  ZINC000302023461    0.0000
      5 C5        -13.3139   -4.7304   55.7106 C.ar    1  ZINC000302023461   -0.0600
      6 C6        -14.1782   -4.8417   56.7848 C.ar    1  ZINC000302023461   -0.0900
      7 C7        -14.0124   -4.0360   57.8963 C.ar    1  ZINC000302023461   -0.0800
      8 C8        -12.9826   -3.1167   57.9374 C.ar    1  ZINC000302023461   -0.0500
      9 C9        -12.1092   -3.0058   56.8624 C.ar    1  ZINC000302023461   -0.1100
     10 S10       -10.7936   -1.8348   56.9105 S.3     1  ZINC000302023461    0.1900
     11 C11       -10.2083   -1.9640   58.5673 C.2     1  ZINC000302023461    0.2100
     12 N12        -9.7117   -3.0478   59.1179 N.2     1  ZINC000302023461   -0.3200
     13 N13        -9.3710   -2.7166   60.4394 N.pl3   1  ZINC000302023461   -0.4700
     14 C14        -9.6952   -1.4139   60.6019 C.2     1  ZINC000302023461    0.3500
     15 C15        -9.5163   -0.6204   61.8369 C.ar    1  ZINC000302023461   -0.0400
     16 C16        -8.7203   -1.1092   62.8733 C.ar    1  ZINC000302023461   -0.0900
     17 C17        -8.5566   -0.3680   64.0245 C.ar    1  ZINC000302023461   -0.1100
     18 C18        -9.1814    0.8648   64.1578 C.ar    1  ZINC000302023461    0.0800
     19 O19        -9.0127    1.5752   65.3061 O.3     1  ZINC000302023461   -0.3000
     20 C20        -9.3474    2.9663   65.2581 C.3     1  ZINC000302023461    0.0200
     21 C21       -10.7058    3.1103   64.5588 C.3     1  ZINC000302023461    0.0200
     22 O22       -10.5899    2.5682   63.2388 O.3     1  ZINC000302023461   -0.3000
     23 C23        -9.9742    1.3593   63.1260 C.ar    1  ZINC000302023461    0.0500
     24 C24       -10.1385    0.6219   61.9667 C.ar    1  ZINC000302023461   -0.0500
     25 N25       -10.1930   -0.9745   59.4629 N.2     1  ZINC000302023461   -0.5000
     26 H26       -13.4463   -5.3613   54.8441 H       1  ZINC000302023461    0.1600
     27 H27       -14.9848   -5.5593   56.7552 H       1  ZINC000302023461    0.1500
     28 H28       -14.6891   -4.1256   58.7332 H       1  ZINC000302023461    0.1500
     29 H29       -12.8540   -2.4873   58.8055 H       1  ZINC000302023461    0.1600
     30 H30        -8.9806   -3.3056   61.1039 H       1  ZINC000302023461    0.4400
     31 H31        -8.2329   -2.0679   62.7741 H       1  ZINC000302023461    0.1300
     32 H32        -7.9401   -0.7481   64.8258 H       1  ZINC000302023461    0.1500
     33 H33        -9.4113    3.3641   66.2709 H       1  ZINC000302023461    0.1300
     34 H34        -8.5860    3.5083   64.6971 H       1  ZINC000302023461    0.0800
     35 H35       -11.4659    2.5623   65.1157 H       1  ZINC000302023461    0.0800
     36 H36       -10.9797    4.1637   64.5009 H       1  ZINC000302023461    0.1300
     37 H37       -10.7513    1.0057   61.1645 H       1  ZINC000302023461    0.1600
@<TRIPOS>BOND
     1     1     2    2
     2     2     3    2
     3     2     4    1
     4     4     9   ar
     5     4     5   ar
     6     5     6   ar
     7     5    26    1
     8     6     7   ar
     9     6    27    1
    10     7     8   ar
    11     7    28    1
    12     8     9   ar
    13     8    29    1
    14     9    10    1
    15    10    11    1
    16    11    25    1
    17    11    12    2
    18    12    13    1
    19    13    14    1
    20    13    30    1
    21    14    15    1
    22    14    25    2
    23    15    24   ar
    24    15    16   ar
    25    16    17   ar
    26    16    31    1
    27    17    18   ar
    28    17    32    1
    29    18    23   ar
    30    18    19    1
    31    19    20    1
    32    20    21    1
    33    20    33    1
    34    20    34    1
    35    21    22    1
    36    21    35    1
    37    21    36    1
    38    22    23    1
    39    23    24   ar
    40    24    37    1
@<TRIPOS>SUBSTRUCTURE
     1 ZINC000302023461        1 TEMP              0 ****  ****    0 ROOT


##########                                Name:    ZINC000845755710
##########                DOCK_Rotatable_Bonds:                   3
##########                         Heavy_Atoms:                  24
##########                    Molecular_Weight:             349.814
##########                DOCK_Rotatable_Bonds:                   3
##########                       Formal_Charge:         -0.00999974
##########                     HBond_Acceptors:                   6
##########                        HBond_Donors:                   0
##########                         Heavy_Atoms:                  24
##########                          Grid_Score:          -30.368093
##########                     Grid_vdw_energy:          -29.822170
##########                      Grid_es_energy:           -0.545924
##########           Internal_energy_repulsive:           15.639685

@<TRIPOS>MOLECULE
ZINC000845755710
 44 47 1 0 0
SMALL
USER_CHARGES


@<TRIPOS>ATOM
      1 C1        -13.1366   -1.4709   51.2960 C.3     1  ZINC000845755710   -0.1700
      2 C2        -12.3156   -1.2027   52.5589 C.3     1  ZINC000845755710    0.2600
      3 C3        -12.1621   -2.4990   53.3570 C.3     1  ZINC000845755710   -0.0900
      4 C4        -11.0320   -2.3392   54.3766 C.3     1  ZINC000845755710   -0.1300
      5 C5        -10.8583   -3.6501   55.1499 C.3     1  ZINC000845755710    0.1100
      6 N6        -12.1513   -4.0281   55.7365 N.am    1  ZINC000845755710   -0.6000
      7 C7        -12.2586   -4.2832   57.0555 C.2     1  ZINC000845755710    0.5900
      8 O8        -13.3349   -4.5953   57.5291 O.2     1  ZINC000845755710   -0.5200
      9 C9        -11.0746   -4.1846   57.9224 C.2     1  ZINC000845755710   -0.2200
     10 C10        -9.9242   -4.9048   57.8268 C.2     1  ZINC000845755710    0.0600
     11 O11        -9.0745   -4.5344   58.7918 O.3     1  ZINC000845755710   -0.1800
     12 C12        -9.6041   -3.5655   59.5673 C.ar    1  ZINC000845755710    0.0500
     13 C13        -9.1296   -2.8674   60.6707 C.ar    1  ZINC000845755710   -0.0900
     14 C14        -9.9180   -1.9087   61.2709 C.ar    1  ZINC000845755710   -0.0800
     15 C15       -11.1872   -1.6308   60.7841 C.ar    1  ZINC000845755710   -0.0400
     16 Cl16      -12.1641   -0.4201   61.5548 Cl      1  ZINC000845755710   -0.0600
     17 C17       -11.6749   -2.3138   59.6888 C.ar    1  ZINC000845755710   -0.0500
     18 C18       -10.8852   -3.2788   59.0731 C.ar    1  ZINC000845755710   -0.0900
     19 C19       -13.3252   -4.1219   54.8580 C.3     1  ZINC000845755710    0.1000
     20 C20       -13.4712   -2.8057   54.0879 C.3     1  ZINC000845755710   -0.1300
     21 O21       -11.0166   -0.7068   52.1942 O.3     1  ZINC000845755710   -0.3700
     22 C22       -11.1354    0.7342   52.2710 C.3     1  ZINC000845755710    0.0100
     23 C23       -12.0830    0.9075   53.4842 C.3     1  ZINC000845755710    0.0200
     24 O24       -12.9770   -0.2172   53.3632 O.3     1  ZINC000845755710   -0.3800
     25 H25       -13.2490   -0.5448   50.7322 H       1  ZINC000845755710    0.0600
     26 H26       -12.6252   -2.2111   50.6806 H       1  ZINC000845755710    0.0800
     27 H27       -14.1205   -1.8478   51.5754 H       1  ZINC000845755710    0.0800
     28 H28       -11.9250   -3.3177   52.6776 H       1  ZINC000845755710    0.0900
     29 H29       -10.1048   -2.0977   53.8569 H       1  ZINC000845755710    0.0800
     30 H30       -11.2798   -1.5369   55.0715 H       1  ZINC000845755710    0.0800
     31 H31       -10.5225   -4.4335   54.4704 H       1  ZINC000845755710    0.0700
     32 H32       -10.1236   -3.5118   55.9431 H       1  ZINC000845755710    0.1000
     33 H33        -9.7265   -5.6625   57.0832 H       1  ZINC000845755710    0.2200
     34 H34        -8.1435   -3.0760   61.0586 H       1  ZINC000845755710    0.1500
     35 H35        -9.5441   -1.3690   62.1285 H       1  ZINC000845755710    0.1500
     36 H36       -12.6628   -2.0977   59.3097 H       1  ZINC000845755710    0.1400
     37 H37       -13.1905   -4.9437   54.1547 H       1  ZINC000845755710    0.0800
     38 H38       -14.2182   -4.2949   55.4585 H       1  ZINC000845755710    0.0900
     39 H39       -13.6961   -1.9990   54.7856 H       1  ZINC000845755710    0.0700
     40 H40       -14.2801   -2.8962   53.3629 H       1  ZINC000845755710    0.0800
     41 H41       -10.1669    1.1958   52.4632 H       1  ZINC000845755710    0.1100
     42 H42       -11.5852    1.1376   51.3638 H       1  ZINC000845755710    0.0800
     43 H43       -11.5249    0.8572   54.4192 H       1  ZINC000845755710    0.0800
     44 H44       -12.6328    1.8460   53.4125 H       1  ZINC000845755710    0.1000
@<TRIPOS>BOND
     1     1     2    1
     2     1    25    1
     3     1    26    1
     4     1    27    1
     5     2    24    1
     6     2     3    1
     7     2    21    1
     8     3    20    1
     9     3     4    1
    10     3    28    1
    11     4     5    1
    12     4    29    1
    13     4    30    1
    14     5     6    1
    15     5    31    1
    16     5    32    1
    17     6     7   am
    18     6    19    1
    19     7     8    2
    20     7     9    1
    21     9    18    1
    22     9    10    2
    23    10    11    1
    24    10    33    1
    25    11    12    1
    26    12    18   ar
    27    12    13   ar
    28    13    14   ar
    29    13    34    1
    30    14    15   ar
    31    14    35    1
    32    15    16    1
    33    15    17   ar
    34    17    18   ar
    35    17    36    1
    36    19    20    1
    37    19    37    1
    38    19    38    1
    39    20    39    1
    40    20    40    1
    41    21    22    1
    42    22    23    1
    43    22    41    1
    44    22    42    1
    45    23    24    1
    46    23    43    1
    47    23    44    1
@<TRIPOS>SUBSTRUCTURE
     1 ZINC000845755710        1 TEMP              0 ****  ****    0 ROOT


##########                                Name:    ZINC000942890482
##########                DOCK_Rotatable_Bonds:                   8
##########                         Heavy_Atoms:                  25
##########                    Molecular_Weight:             346.445
##########                DOCK_Rotatable_Bonds:                   8
##########                       Formal_Charge:          -0.0100004
##########                     HBond_Acceptors:                   5
##########                        HBond_Donors:                   0
##########                         Heavy_Atoms:                  25
##########                          Grid_Score:          -30.363646
##########                     Grid_vdw_energy:          -30.575569
##########                      Grid_es_energy:            0.211924
##########           Internal_energy_repulsive:           23.195244

@<TRIPOS>MOLECULE
ZINC000942890482
 52 54 1 0 0
SMALL
USER_CHARGES


@<TRIPOS>ATOM
      1 C1        -14.8605   -4.0097   54.8382 C.3     1  ZINC000942890482   -0.1700
      2 C2        -13.4219   -4.1319   54.3318 C.3     1  ZINC000942890482    0.1000
      3 N3        -12.4948   -3.7344   55.3942 N.am    1  ZINC000942890482   -0.6000
      4 C4        -12.3725   -4.4940   56.5009 C.2     1  ZINC000942890482    0.5700
      5 O5        -13.0316   -5.5089   56.6173 O.2     1  ZINC000942890482   -0.5100
      6 C6        -11.4378   -4.0934   57.5722 C.ar    1  ZINC000942890482   -0.1400
      7 C7        -10.1306   -4.5843   57.5814 C.ar    1  ZINC000942890482   -0.0600
      8 C8         -9.2621   -4.2067   58.5832 C.ar    1  ZINC000942890482   -0.1600
      9 C9         -9.6846   -3.3414   59.5806 C.ar    1  ZINC000942890482    0.1300
     10 F10        -8.8296   -2.9746   60.5602 F       1  ZINC000942890482   -0.1300
     11 C11       -10.9816   -2.8506   59.5761 C.ar    1  ZINC000942890482   -0.1600
     12 C12       -11.8566   -3.2178   58.5765 C.ar    1  ZINC000942890482   -0.0100
     13 C13       -13.2657   -2.6836   58.5729 C.3     1  ZINC000942890482   -0.1200
     14 C14       -11.7006   -2.5114   55.2538 C.3     1  ZINC000942890482    0.1400
     15 H15       -11.0150   -2.3948   56.0932 H       1  ZINC000942890482    0.1100
     16 C16       -12.6163   -1.2675   55.1068 C.3     1  ZINC000942890482   -0.1500
     17 C17       -11.7313   -0.2779   54.3200 C.3     1  ZINC000942890482    0.1100
     18 N18       -10.7118   -1.0691   53.6155 N.am    1  ZINC000942890482   -0.6200
     19 C19        -9.7328   -0.5715   52.8341 C.2     1  ZINC000942890482    0.5300
     20 O20        -8.9438   -1.3213   52.2992 O.2     1  ZINC000942890482   -0.5400
     21 C21        -9.6184    0.9166   52.6254 C.3     1  ZINC000942890482   -0.1300
     22 C22        -8.1540    1.2861   52.3803 C.3     1  ZINC000942890482   -0.0700
     23 C23        -8.0410    2.7935   52.1443 C.3     1  ZINC000942890482   -0.1600
     24 C24        -7.3369    3.6257   53.2179 C.3     1  ZINC000942890482   -0.1800
     25 C25        -6.6468    3.3643   51.8775 C.3     1  ZINC000942890482   -0.1800
     26 C26       -10.9363   -2.4972   53.9065 C.3     1  ZINC000942890482    0.0900
     27 H27       -14.9979   -4.6597   55.7024 H       1  ZINC000942890482    0.0600
     28 H28       -15.0581   -2.9769   55.1254 H       1  ZINC000942890482    0.0600
     29 H29       -15.5502   -4.3054   54.0477 H       1  ZINC000942890482    0.0700
     30 H30       -13.2242   -5.1646   54.0447 H       1  ZINC000942890482    0.0900
     31 H31       -13.2844   -3.4818   53.4677 H       1  ZINC000942890482    0.0900
     32 H32        -9.8005   -5.2586   56.8050 H       1  ZINC000942890482    0.1400
     33 H33        -8.2510   -4.5860   58.5914 H       1  ZINC000942890482    0.1400
     34 H34       -11.3057   -2.1768   60.3555 H       1  ZINC000942890482    0.1400
     35 H35       -13.2863   -1.7162   58.0711 H       1  ZINC000942890482    0.0900
     36 H36       -13.9171   -3.3805   58.0454 H       1  ZINC000942890482    0.0700
     37 H37       -13.6130   -2.5678   59.5996 H       1  ZINC000942890482    0.0700
     38 H38       -13.5148   -1.5148   54.5415 H       1  ZINC000942890482    0.1000
     39 H39       -12.8743   -0.8607   56.0846 H       1  ZINC000942890482    0.0900
     40 H40       -12.3383    0.2703   53.5995 H       1  ZINC000942890482    0.0700
     41 H41       -11.2507    0.4175   55.0081 H       1  ZINC000942890482    0.0700
     42 H42       -10.2164    1.2093   51.7624 H       1  ZINC000942890482    0.0900
     43 H43        -9.9809    1.4368   53.5119 H       1  ZINC000942890482    0.0900
     44 H44        -7.5589    1.0089   53.2503 H       1  ZINC000942890482    0.0700
     45 H45        -7.7866    0.7526   51.5037 H       1  ZINC000942890482    0.0700
     46 H46        -8.8810    3.2519   51.6222 H       1  ZINC000942890482    0.1000
     47 H47        -7.7134    4.6318   53.4022 H       1  ZINC000942890482    0.0900
     48 H48        -6.9540    3.0993   54.0921 H       1  ZINC000942890482    0.0900
     49 H49        -5.8100    2.6658   51.8701 H       1  ZINC000942890482    0.0900
     50 H50        -6.5694    4.1984   51.1802 H       1  ZINC000942890482    0.0900
     51 H51        -9.9842   -3.0188   54.0037 H       1  ZINC000942890482    0.0800
     52 H52       -11.5416   -2.9534   53.1231 H       1  ZINC000942890482    0.0900
@<TRIPOS>BOND
     1     1     2    1
     2     1    27    1
     3     1    28    1
     4     1    29    1
     5     2     3    1
     6     2    30    1
     7     2    31    1
     8     3     4   am
     9     3    14    1
    10     4     5    2
    11     4     6    1
    12     6    12   ar
    13     6     7   ar
    14     7     8   ar
    15     7    32    1
    16     8     9   ar
    17     8    33    1
    18     9    10    1
    19     9    11   ar
    20    11    12   ar
    21    11    34    1
    22    12    13    1
    23    13    35    1
    24    13    36    1
    25    13    37    1
    26    14    15    1
    27    14    26    1
    28    14    16    1
    29    16    17    1
    30    16    38    1
    31    16    39    1
    32    17    18    1
    33    17    40    1
    34    17    41    1
    35    18    19   am
    36    18    26    1
    37    19    20    2
    38    19    21    1
    39    21    22    1
    40    21    42    1
    41    21    43    1
    42    22    23    1
    43    22    44    1
    44    22    45    1
    45    23    25    1
    46    23    24    1
    47    23    46    1
    48    24    25    1
    49    24    47    1
    50    24    48    1
    51    25    49    1
    52    25    50    1
    53    26    51    1
    54    26    52    1
@<TRIPOS>SUBSTRUCTURE
     1 ZINC000942890482        1 TEMP              0 ****  ****    0 ROOT


##########                                Name:    ZINC000970996691
##########                DOCK_Rotatable_Bonds:                   7
##########                         Heavy_Atoms:                  24
##########                    Molecular_Weight:             334.462
##########                DOCK_Rotatable_Bonds:                   7
##########                       Formal_Charge:          -0.0199999
##########                     HBond_Acceptors:                   6
##########                        HBond_Donors:                   0
##########                         Heavy_Atoms:                  24
##########                          Grid_Score:          -30.356079
##########                     Grid_vdw_energy:          -29.867361
##########                      Grid_es_energy:           -0.488718
##########           Internal_energy_repulsive:           10.581678

@<TRIPOS>MOLECULE
ZINC000970996691
 54 56 1 0 0
SMALL
USER_CHARGES


@<TRIPOS>ATOM
      1 C1        -15.4464   -0.4665   48.8592 C.3     1  ZINC000970996691   -0.1500
      2 C2        -14.4825   -1.4152   49.5742 C.3     1  ZINC000970996691   -0.1200
      3 C3        -13.8966   -0.7163   50.8028 C.3     1  ZINC000970996691   -0.0300
      4 C4        -13.0112   -1.6777   51.5530 C.2     1  ZINC000970996691    0.1800
      5 N5        -13.3817   -2.5015   52.5035 N.2     1  ZINC000970996691   -0.4700
      6 C6        -12.2653   -3.1544   52.8723 C.2     1  ZINC000970996691    0.1800
      7 C7        -12.1631   -4.2153   53.9378 C.3     1  ZINC000970996691    0.1500
      8 N8        -13.0469   -3.8696   55.0591 N.3     1  ZINC000970996691   -0.5200
      9 C9        -13.8493   -5.0282   55.4735 C.3     1  ZINC000970996691    0.0200
     10 C10       -12.2778   -3.3308   56.1889 C.3     1  ZINC000970996691    0.0700
     11 H11       -11.4211   -3.9660   56.4138 H       1  ZINC000970996691    0.0600
     12 C12       -11.8304   -1.8714   55.9114 C.3     1  ZINC000970996691   -0.1300
     13 C13       -11.6901   -1.2774   57.3288 C.3     1  ZINC000970996691    0.1000
     14 N14       -12.5155   -2.0961   58.2287 N.am    1  ZINC000970996691   -0.6200
     15 C15       -12.6461   -1.9141   59.5578 C.2     1  ZINC000970996691    0.5300
     16 O16       -13.3576   -2.6537   60.2042 O.2     1  ZINC000970996691   -0.5300
     17 C17       -11.9082   -0.7915   60.2407 C.3     1  ZINC000970996691   -0.1000
     18 C18       -12.6809   -0.3575   61.4878 C.3     1  ZINC000970996691   -0.1100
     19 C19       -11.9316    0.7823   62.1810 C.3     1  ZINC000970996691   -0.1200
     20 C20       -10.5365    0.3029   62.5867 C.3     1  ZINC000970996691   -0.1200
     21 C21        -9.7636   -0.1313   61.3396 C.3     1  ZINC000970996691   -0.1200
     22 C22       -10.5129   -1.2709   60.6464 C.3     1  ZINC000970996691   -0.1000
     23 C23       -13.1775   -3.1494   57.4368 C.3     1  ZINC000970996691    0.1200
     24 N24       -11.2907   -2.7027   52.1410 N.2     1  ZINC000970996691   -0.3800
     25 O25       -11.6992   -1.8578   51.3725 O.3     1  ZINC000970996691    0.0800
     26 H26       -16.2527   -0.1881   49.5378 H       1  ZINC000970996691    0.0600
     27 H27       -14.9096    0.4291   48.5462 H       1  ZINC000970996691    0.0600
     28 H28       -15.8639   -0.9643   47.9839 H       1  ZINC000970996691    0.0600
     29 H29       -15.0194   -2.3107   49.8872 H       1  ZINC000970996691    0.0700
     30 H30       -13.6762   -1.6935   48.8956 H       1  ZINC000970996691    0.0700
     31 H31       -13.3100    0.1457   50.4851 H       1  ZINC000970996691    0.1100
     32 H32       -14.7063   -0.3851   51.4530 H       1  ZINC000970996691    0.1000
     33 H33       -12.4624   -5.1774   53.5224 H       1  ZINC000970996691    0.0700
     34 H34       -11.1340   -4.2767   54.2918 H       1  ZINC000970996691    0.1100
     35 H35       -13.1872   -5.8356   55.7863 H       1  ZINC000970996691    0.0300
     36 H36       -14.4945   -4.7447   56.3050 H       1  ZINC000970996691    0.0800
     37 H37       -14.4617   -5.3641   54.6365 H       1  ZINC000970996691    0.0700
     38 H38       -10.8736   -1.8539   55.3895 H       1  ZINC000970996691    0.0800
     39 H39       -12.5909   -1.3363   55.3425 H       1  ZINC000970996691    0.0900
     40 H40       -10.6477   -1.3150   57.6450 H       1  ZINC000970996691    0.0700
     41 H41       -12.0448   -0.2467   57.3356 H       1  ZINC000970996691    0.0700
     42 H42       -11.8178    0.0526   59.5571 H       1  ZINC000970996691    0.0900
     43 H43       -13.6749   -0.0159   61.1987 H       1  ZINC000970996691    0.0700
     44 H44       -12.7713   -1.2016   62.1714 H       1  ZINC000970996691    0.0700
     45 H45       -11.8412    1.6264   61.4974 H       1  ZINC000970996691    0.0600
     46 H46       -12.4822    1.0915   63.0695 H       1  ZINC000970996691    0.0700
     47 H47       -10.0026    1.1148   63.0806 H       1  ZINC000970996691    0.0600
     48 H48       -10.6269   -0.5413   63.2703 H       1  ZINC000970996691    0.0600
     49 H49        -9.6733    0.7129   60.6560 H       1  ZINC000970996691    0.0600
     50 H50        -8.7697   -0.4727   61.6286 H       1  ZINC000970996691    0.0700
     51 H51       -10.6033   -2.1151   61.3299 H       1  ZINC000970996691    0.0800
     52 H52        -9.9624   -1.5802   59.7578 H       1  ZINC000970996691    0.0600
     53 H53       -14.1764   -2.8297   57.1402 H       1  ZINC000970996691    0.0800
     54 H54       -13.2287   -4.0770   58.0070 H       1  ZINC000970996691    0.0800
@<TRIPOS>BOND
     1     1     2    1
     2     1    26    1
     3     1    27    1
     4     1    28    1
     5     2     3    1
     6     2    29    1
     7     2    30    1
     8     3     4    1
     9     3    31    1
    10     3    32    1
    11     4    25    1
    12     4     5    2
    13     5     6    1
    14     6     7    1
    15     6    24    2
    16     7     8    1
    17     7    33    1
    18     7    34    1
    19     8     9    1
    20     8    10    1
    21     9    35    1
    22     9    36    1
    23     9    37    1
    24    10    11    1
    25    10    23    1
    26    10    12    1
    27    12    13    1
    28    12    38    1
    29    12    39    1
    30    13    14    1
    31    13    40    1
    32    13    41    1
    33    14    15   am
    34    14    23    1
    35    15    16    2
    36    15    17    1
    37    17    22    1
    38    17    18    1
    39    17    42    1
    40    18    19    1
    41    18    43    1
    42    18    44    1
    43    19    20    1
    44    19    45    1
    45    19    46    1
    46    20    21    1
    47    20    47    1
    48    20    48    1
    49    21    22    1
    50    21    49    1
    51    21    50    1
    52    22    51    1
    53    22    52    1
    54    23    53    1
    55    23    54    1
    56    24    25    1
@<TRIPOS>SUBSTRUCTURE
     1 ZINC000970996691        1 TEMP              0 ****  ****    0 ROOT


##########                                Name:    ZINC000482139334
##########                DOCK_Rotatable_Bonds:                   4
##########                         Heavy_Atoms:                  26
##########                    Molecular_Weight:             348.376
##########                DOCK_Rotatable_Bonds:                   4
##########                       Formal_Charge:           0.0300002
##########                     HBond_Acceptors:                   5
##########                        HBond_Donors:                   1
##########                         Heavy_Atoms:                  26
##########                          Grid_Score:          -30.300114
##########                     Grid_vdw_energy:          -29.209143
##########                      Grid_es_energy:           -1.090971
##########           Internal_energy_repulsive:           13.490963

@<TRIPOS>MOLECULE
ZINC000482139334
 43 47 1 0 0
SMALL
USER_CHARGES


@<TRIPOS>ATOM
      1 O1         -9.3534   -2.5478   59.2959 O.2     1  ZINC000482139334   -0.4800
      2 C2        -10.5208   -2.2239   59.2401 C.2     1  ZINC000482139334    0.5500
      3 N3        -11.0510   -1.4457   60.2042 N.am    1  ZINC000482139334   -0.6100
      4 C4        -10.2636   -1.0202   61.2627 C.2     1  ZINC000482139334    0.4300
      5 N5        -10.6724   -0.2918   62.2697 N.2     1  ZINC000482139334   -0.4800
      6 C6         -9.6201   -0.0790   63.1026 C.2     1  ZINC000482139334    0.0400
      7 C7         -9.6430    0.6975   64.3667 C.ar    1  ZINC000482139334   -0.0500
      8 C8         -8.4808    0.8394   65.1213 C.ar    1  ZINC000482139334   -0.0800
      9 C9         -8.5074    1.5634   66.2964 C.ar    1  ZINC000482139334   -0.1300
     10 C10        -9.6850    2.1474   66.7265 C.ar    1  ZINC000482139334   -0.0800
     11 C11       -10.8433    2.0106   65.9831 C.ar    1  ZINC000482139334   -0.1600
     12 C12       -10.8279    1.2934   64.8016 C.ar    1  ZINC000482139334    0.1300
     13 F13       -11.9594    1.1600   64.0755 F       1  ZINC000482139334   -0.1200
     14 C14        -8.5469   -0.7067   62.5664 C.2     1  ZINC000482139334   -0.0600
     15 O15        -8.9599   -1.2937   61.4238 O.3     1  ZINC000482139334   -0.1800
     16 C16       -11.3769   -2.6864   58.0893 C.3     1  ZINC000482139334   -0.1800
     17 H17       -11.4589   -3.7666   57.9687 H       1  ZINC000482139334    0.1400
     18 C18       -12.6024   -1.8399   57.7345 C.3     1  ZINC000482139334   -0.1200
     19 C19       -11.3774   -1.8350   56.8256 C.3     1  ZINC000482139334   -0.0500
     20 C20       -10.4832   -0.5899   56.7034 C.3     1  ZINC000482139334   -0.0700
     21 C21       -10.6257   -0.2307   55.2077 C.3     1  ZINC000482139334   -0.0900
     22 C22       -10.9744   -1.5326   54.5174 C.ar    1  ZINC000482139334   -0.0800
     23 C23       -10.9164   -1.8815   53.1791 C.ar    1  ZINC000482139334   -0.1100
     24 C24       -11.2918   -3.1472   52.7727 C.ar    1  ZINC000482139334   -0.1100
     25 C25       -11.7274   -4.0696   53.7052 C.ar    1  ZINC000482139334   -0.1200
     26 C26       -11.7861   -3.7242   55.0412 C.ar    1  ZINC000482139334   -0.1000
     27 C27       -11.4100   -2.4564   55.4518 C.ar    1  ZINC000482139334   -0.0700
     28 H28       -11.9837   -1.1833   60.1576 H       1  ZINC000482139334    0.4400
     29 H29        -7.5602    0.3836   64.7876 H       1  ZINC000482139334    0.1300
     30 H30        -7.6064    1.6736   66.8817 H       1  ZINC000482139334    0.1400
     31 H31        -9.7003    2.7125   67.6469 H       1  ZINC000482139334    0.1400
     32 H32       -11.7602    2.4683   66.3240 H       1  ZINC000482139334    0.1400
     33 H33        -7.5487   -0.7352   62.9777 H       1  ZINC000482139334    0.2200
     34 H34       -13.4903   -2.3632   57.3797 H       1  ZINC000482139334    0.1200
     35 H35       -12.7893   -0.9485   58.3334 H       1  ZINC000482139334    0.1100
     36 H36       -10.8547    0.2181   57.3336 H       1  ZINC000482139334    0.0800
     37 H37        -9.4483   -0.8298   56.9479 H       1  ZINC000482139334    0.0900
     38 H38       -11.4251    0.4970   55.0683 H       1  ZINC000482139334    0.0800
     39 H39        -9.6848    0.1615   54.8218 H       1  ZINC000482139334    0.0800
     40 H40       -10.5765   -1.1610   52.4498 H       1  ZINC000482139334    0.1200
     41 H41       -11.2453   -3.4154   51.7276 H       1  ZINC000482139334    0.1300
     42 H42       -12.0219   -5.0596   53.3894 H       1  ZINC000482139334    0.1300
     43 H43       -12.1271   -4.4459   55.7688 H       1  ZINC000482139334    0.1200
@<TRIPOS>BOND
     1     1     2    2
     2     2     3   am
     3     2    16    1
     4     3     4    1
     5     3    28    1
     6     4    15    1
     7     4     5    2
     8     5     6    1
     9     6     7    1
    10     6    14    2
    11     7    12   ar
    12     7     8   ar
    13     8     9   ar
    14     8    29    1
    15     9    10   ar
    16     9    30    1
    17    10    11   ar
    18    10    31    1
    19    11    12   ar
    20    11    32    1
    21    12    13    1
    22    14    15    1
    23    14    33    1
    24    16    17    1
    25    16    19    1
    26    16    18    1
    27    18    19    1
    28    18    34    1
    29    18    35    1
    30    19    27    1
    31    19    20    1
    32    20    21    1
    33    20    36    1
    34    20    37    1
    35    21    22    1
    36    21    38    1
    37    21    39    1
    38    22    27   ar
    39    22    23   ar
    40    23    24   ar
    41    23    40    1
    42    24    25   ar
    43    24    41    1
    44    25    26   ar
    45    25    42    1
    46    26    27   ar
    47    26    43    1
@<TRIPOS>SUBSTRUCTURE
     1 ZINC000482139334        1 TEMP              0 ****  ****    0 ROOT


##########                                Name:    ZINC000364058410
##########                DOCK_Rotatable_Bonds:                   5
##########                         Heavy_Atoms:                  25
##########                    Molecular_Weight:             358.464
##########                DOCK_Rotatable_Bonds:                   5
##########                       Formal_Charge:           0.0100002
##########                     HBond_Acceptors:                   7
##########                        HBond_Donors:                   0
##########                         Heavy_Atoms:                  25
##########                          Grid_Score:          -30.293829
##########                     Grid_vdw_energy:          -29.797050
##########                      Grid_es_energy:           -0.496778
##########           Internal_energy_repulsive:           60.622944

@<TRIPOS>MOLECULE
ZINC000364058410
 47 50 1 0 0
SMALL
USER_CHARGES


@<TRIPOS>ATOM
      1 C1         -8.5776   -3.5080   59.2854 C.3     1  ZINC000364058410   -0.0700
      2 C2         -9.6537   -3.1517   58.2924 C.2     1  ZINC000364058410   -0.2500
      3 C3        -10.1628   -3.9699   57.3424 C.2     1  ZINC000364058410    0.0800
      4 N4        -11.1007   -3.2774   56.6628 N.pl3   1  ZINC000364058410   -0.3600
      5 C5        -11.9044   -3.7819   55.5467 C.3     1  ZINC000364058410    0.1300
      6 C6        -12.7652   -2.7027   54.8652 C.3     1  ZINC000364058410    0.1100
      7 N7        -11.6119   -2.4912   53.9690 N.am    1  ZINC000364058410   -0.6500
      8 C8        -11.1715   -1.4580   53.2240 C.2     1  ZINC000364058410    0.5600
      9 O9        -10.1606   -1.5738   52.5641 O.2     1  ZINC000364058410   -0.5000
     10 C10       -11.9352   -0.1589   53.2111 C.3     1  ZINC000364058410    0.1400
     11 H11       -12.5165   -0.0676   54.1287 H       1  ZINC000364058410    0.0900
     12 C12       -10.9538    1.0127   53.1062 C.3     1  ZINC000364058410   -0.1200
     13 C13       -11.7382    2.3180   52.9535 C.3     1  ZINC000364058410   -0.1200
     14 C14       -12.5698    2.2680   51.6697 C.3     1  ZINC000364058410   -0.1400
     15 C15       -13.5695    1.1106   51.7584 C.3     1  ZINC000364058410    0.1000
     16 N16       -12.8371   -0.1293   52.0517 N.am    1  ZINC000364058410   -0.6000
     17 C17       -12.9863   -1.2164   51.2691 C.2     1  ZINC000364058410    0.5900
     18 O18       -12.3740   -2.2372   51.5226 O.2     1  ZINC000364058410   -0.4900
     19 C19       -13.8857   -1.1692   50.1126 C.2     1  ZINC000364058410   -0.2600
     20 C20       -15.2377   -1.3636   50.1515 C.2     1  ZINC000364058410   -0.0600
     21 C21       -15.8370   -1.2631   48.9184 C.2     1  ZINC000364058410   -0.1400
     22 C22       -15.0066   -0.9957   47.9037 C.2     1  ZINC000364058410   -0.2400
     23 S23       -13.3987   -0.8458   48.4543 S.3     1  ZINC000364058410    0.2100
     24 C24       -11.1343   -3.8656   54.2163 C.3     1  ZINC000364058410    0.0900
     25 N25       -11.1704   -1.9912   57.2133 N.2     1  ZINC000364058410   -0.3000
     26 C26       -10.3069   -1.9189   58.1938 C.2     1  ZINC000364058410    0.0500
     27 H27        -9.0350   -3.9206   60.1846 H       1  ZINC000364058410    0.0600
     28 H28        -7.9082   -4.2476   58.8462 H       1  ZINC000364058410    0.0600
     29 H29        -8.0110   -2.6133   59.5439 H       1  ZINC000364058410    0.0600
     30 H30        -9.8707   -4.9937   57.1607 H       1  ZINC000364058410    0.1700
     31 H31       -12.4524   -4.6909   55.7945 H       1  ZINC000364058410    0.1300
     32 H32       -13.6469   -3.0979   54.3607 H       1  ZINC000364058410    0.1100
     33 H33       -12.9868   -1.8486   55.5051 H       1  ZINC000364058410    0.0900
     34 H34       -10.3439    1.0583   54.0084 H       1  ZINC000364058410    0.0800
     35 H35       -10.3100    0.8714   52.2380 H       1  ZINC000364058410    0.0800
     36 H36       -12.3999    2.4463   53.8100 H       1  ZINC000364058410    0.0700
     37 H37       -11.0428    3.1558   52.9033 H       1  ZINC000364058410    0.0800
     38 H38       -13.1101    3.2070   51.5495 H       1  ZINC000364058410    0.0800
     39 H39       -11.9108    2.1149   50.8151 H       1  ZINC000364058410    0.0700
     40 H40       -14.2858    1.3068   52.5561 H       1  ZINC000364058410    0.0800
     41 H41       -14.0955    1.0087   50.8091 H       1  ZINC000364058410    0.0900
     42 H42       -15.7812   -1.5755   51.0604 H       1  ZINC000364058410    0.1500
     43 H43       -16.9003   -1.3909   48.7788 H       1  ZINC000364058410    0.1500
     44 H44       -15.3139   -0.8855   46.8741 H       1  ZINC000364058410    0.1700
     45 H45       -10.0537   -3.9399   54.3382 H       1  ZINC000364058410    0.0900
     46 H46       -11.5369   -4.6023   53.5211 H       1  ZINC000364058410    0.1100
     47 H47       -10.1248   -1.0543   58.8147 H       1  ZINC000364058410    0.1800
@<TRIPOS>BOND
     1     1     2    1
     2     1    27    1
     3     1    28    1
     4     1    29    1
     5     2    26    1
     6     2     3    2
     7     3     4    1
     8     3    30    1
     9     4     5    1
    10     4    25    1
    11     5    24    1
    12     5     6    1
    13     5    31    1
    14     6     7    1
    15     6    32    1
    16     6    33    1
    17     7     8   am
    18     7    24    1
    19     8     9    2
    20     8    10    1
    21    10    11    1
    22    10    16    1
    23    10    12    1
    24    12    13    1
    25    12    34    1
    26    12    35    1
    27    13    14    1
    28    13    36    1
    29    13    37    1
    30    14    15    1
    31    14    38    1
    32    14    39    1
    33    15    16    1
    34    15    40    1
    35    15    41    1
    36    16    17   am
    37    17    18    2
    38    17    19    1
    39    19    23    1
    40    19    20    2
    41    20    21    1
    42    20    42    1
    43    21    22    2
    44    21    43    1
    45    22    23    1
    46    22    44    1
    47    24    45    1
    48    24    46    1
    49    25    26    2
    50    26    47    1
@<TRIPOS>SUBSTRUCTURE
     1 ZINC000364058410        1 TEMP              0 ****  ****    0 ROOT


##########                                Name:    ZINC000433533595
##########                DOCK_Rotatable_Bonds:                  10
##########                         Heavy_Atoms:                  24
##########                    Molecular_Weight:             397.312
##########                DOCK_Rotatable_Bonds:                  10
##########                       Formal_Charge:          0.00999916
##########                     HBond_Acceptors:                   5
##########                        HBond_Donors:                   1
##########                         Heavy_Atoms:                  24
##########                          Grid_Score:          -30.286606
##########                     Grid_vdw_energy:          -28.823383
##########                      Grid_es_energy:           -1.463222
##########           Internal_energy_repulsive:           14.200679

@<TRIPOS>MOLECULE
ZINC000433533595
 49 50 1 0 0
SMALL
USER_CHARGES


@<TRIPOS>ATOM
      1 C1        -10.4813   -1.5170   52.6863 C.3     1  ZINC000433533595   -0.1500
      2 C2        -11.6922   -2.4215   52.4487 C.3     1  ZINC000433533595   -0.1200
      3 C3        -11.8901   -3.3372   53.6584 C.3     1  ZINC000433533595   -0.1300
      4 C4        -12.5202   -2.5412   54.8029 C.3     1  ZINC000433533595    0.1000
      5 N5        -12.7374   -3.4252   55.9509 N.am    1  ZINC000433533595   -0.5500
      6 C6        -12.4163   -3.0092   57.1920 C.2     1  ZINC000433533595    0.5100
      7 O7        -12.5963   -3.7415   58.1429 O.2     1  ZINC000433533595   -0.5100
      8 C8        -11.8392   -1.6472   57.3971 C.2     1  ZINC000433533595    0.5000
      9 O9        -12.5729   -0.6841   57.4853 O.2     1  ZINC000433533595   -0.4900
     10 N10       -10.5039   -1.4873   57.4841 N.am    1  ZINC000433533595   -0.6300
     11 C11        -9.9633   -0.2116   57.6762 C.ar    1  ZINC000433533595    0.1200
     12 C12        -9.6418    0.5796   56.5827 C.ar    1  ZINC000433533595   -0.0600
     13 C13        -9.1075    1.8404   56.7755 C.ar    1  ZINC000433533595   -0.1100
     14 Br14       -8.6703    2.9177   55.2841 Br      1  ZINC000433533595   -0.0400
     15 C15        -8.8926    2.3155   58.0568 C.ar    1  ZINC000433533595   -0.0600
     16 C16        -9.2107    1.5324   59.1512 C.ar    1  ZINC000433533595   -0.1900
     17 C17        -9.7515    0.2707   58.9669 C.ar    1  ZINC000433533595    0.1300
     18 O18       -10.0648   -0.5001   60.0425 O.3     1  ZINC000433533595   -0.3100
     19 C19        -8.9892   -1.1918   60.6802 C.3     1  ZINC000433533595    0.0800
     20 C20        -8.9173   -0.7774   62.1512 C.3     1  ZINC000433533595   -0.1500
     21 C21        -9.2263   -2.7004   60.5864 C.3     1  ZINC000433533595   -0.1800
     22 C22       -13.3036   -4.7613   55.7496 C.3     1  ZINC000433533595    0.0600
     23 C23       -14.6383   -5.0726   56.4295 C.3     1  ZINC000433533595   -0.1900
     24 C24       -14.5810   -4.8687   54.9143 C.3     1  ZINC000433533595   -0.1800
     25 H25        -9.5914   -2.1306   52.8268 H       1  ZINC000433533595    0.0500
     26 H26       -10.3404   -0.8647   51.8245 H       1  ZINC000433533595    0.0500
     27 H27       -10.6494   -0.9114   53.5769 H       1  ZINC000433533595    0.0500
     28 H28       -12.5820   -1.8078   52.3081 H       1  ZINC000433533595    0.0700
     29 H29       -11.5241   -3.0272   51.5581 H       1  ZINC000433533595    0.0600
     30 H30       -12.5471   -4.1630   53.3853 H       1  ZINC000433533595    0.0600
     31 H31       -10.9252   -3.7309   53.9777 H       1  ZINC000433533595    0.0700
     32 H32       -11.8530   -1.7289   55.0910 H       1  ZINC000433533595    0.1100
     33 H33       -13.4748   -2.1287   54.4763 H       1  ZINC000433533595    0.0800
     34 H34        -9.9176   -2.2568   57.4135 H       1  ZINC000433533595    0.4300
     35 H35        -9.8084    0.2107   55.5814 H       1  ZINC000433533595    0.1600
     36 H36        -8.4748    3.3007   58.2027 H       1  ZINC000433533595    0.1400
     37 H37        -9.0415    1.9066   60.1501 H       1  ZINC000433533595    0.1500
     38 H38        -8.0512   -0.9401   60.1854 H       1  ZINC000433533595    0.0800
     39 H39        -9.8553   -1.0291   62.6459 H       1  ZINC000433533595    0.0700
     40 H40        -8.0969   -1.3050   62.6377 H       1  ZINC000433533595    0.0800
     41 H41        -8.7484    0.2974   62.2180 H       1  ZINC000433533595    0.0700
     42 H42       -10.1644   -2.9522   61.0811 H       1  ZINC000433533595    0.0700
     43 H43        -9.2776   -2.9957   59.5384 H       1  ZINC000433533595    0.0600
     44 H44        -8.4059   -3.2281   61.0729 H       1  ZINC000433533595    0.0800
     45 H45       -12.5791   -5.5715   55.6678 H       1  ZINC000433533595    0.1400
     46 H46       -14.7921   -6.0878   56.7954 H       1  ZINC000433533595    0.0900
     47 H47       -15.0952   -4.2833   57.0266 H       1  ZINC000433533595    0.1400
     48 H48       -15.0000   -3.9454   54.5145 H       1  ZINC000433533595    0.1000
     49 H49       -14.6969   -5.7498   54.2832 H       1  ZINC000433533595    0.1000
@<TRIPOS>BOND
     1     1     2    1
     2     1    25    1
     3     1    26    1
     4     1    27    1
     5     2     3    1
     6     2    28    1
     7     2    29    1
     8     3     4    1
     9     3    30    1
    10     3    31    1
    11     4     5    1
    12     4    32    1
    13     4    33    1
    14     5     6   am
    15     5    22    1
    16     6     7    2
    17     6     8    1
    18     8     9    2
    19     8    10   am
    20    10    11    1
    21    10    34    1
    22    11    17   ar
    23    11    12   ar
    24    12    13   ar
    25    12    35    1
    26    13    14    1
    27    13    15   ar
    28    15    16   ar
    29    15    36    1
    30    16    17   ar
    31    16    37    1
    32    17    18    1
    33    18    19    1
    34    19    20    1
    35    19    21    1
    36    19    38    1
    37    20    39    1
    38    20    40    1
    39    20    41    1
    40    21    42    1
    41    21    43    1
    42    21    44    1
    43    22    24    1
    44    22    23    1
    45    22    45    1
    46    23    24    1
    47    23    46    1
    48    23    47    1
    49    24    48    1
    50    24    49    1
@<TRIPOS>SUBSTRUCTURE
     1 ZINC000433533595        1 TEMP              0 ****  ****    0 ROOT


##########                                Name:    ZINC000077537368
##########                DOCK_Rotatable_Bonds:                   5
##########                         Heavy_Atoms:                  27
##########                    Molecular_Weight:             365.478
##########                DOCK_Rotatable_Bonds:                   5
##########                       Formal_Charge:          -0.0400007
##########                     HBond_Acceptors:                   6
##########                        HBond_Donors:                   0
##########                         Heavy_Atoms:                  27
##########                          Grid_Score:          -30.270954
##########                     Grid_vdw_energy:          -29.808861
##########                      Grid_es_energy:           -0.462094
##########           Internal_energy_repulsive:           12.323224

@<TRIPOS>MOLECULE
ZINC000077537368
 54 56 1 0 0
SMALL
USER_CHARGES


@<TRIPOS>ATOM
      1 C1        -12.9050    1.0034   52.1056 C.3     1  ZINC000077537368    0.0800
      2 N2        -11.4861    0.6496   52.1925 N.pl3   1  ZINC000077537368   -0.2600
      3 N3        -10.5122    1.4870   52.1791 N.2     1  ZINC000077537368   -0.2700
      4 C4         -9.3627    0.8685   52.2719 C.2     1  ZINC000077537368    0.0400
      5 C5         -8.0037    1.5195   52.2886 C.3     1  ZINC000077537368    0.0200
      6 C6         -6.9500    0.5124   51.8234 C.3     1  ZINC000077537368   -0.1400
      7 C7         -8.0050    2.7270   51.3490 C.3     1  ZINC000077537368   -0.1400
      8 C8         -7.6763    1.9802   53.7105 C.3     1  ZINC000077537368   -0.1400
      9 C9         -9.6190   -0.5021   52.3534 C.2     1  ZINC000077537368   -0.2000
     10 C10       -10.9971   -0.6208   52.3062 C.2     1  ZINC000077537368   -0.0400
     11 C11       -11.7787   -1.8666   52.3587 C.2     1  ZINC000077537368    0.5900
     12 O12       -11.8793   -2.5637   51.3671 O.2     1  ZINC000077537368   -0.5400
     13 N13       -12.3830   -2.2352   53.5057 N.am    1  ZINC000077537368   -0.6000
     14 C14       -13.1639   -3.4792   53.5816 C.3     1  ZINC000077537368    0.0800
     15 C15       -12.6781   -4.2857   54.7906 C.3     1  ZINC000077537368    0.0400
     16 N16       -12.7344   -3.4426   55.9924 N.3     1  ZINC000077537368   -0.5300
     17 C17       -12.4413   -4.2266   57.1996 C.3     1  ZINC000077537368    0.0900
     18 C18       -12.7811   -3.4130   58.4217 C.ar    1  ZINC000077537368   -0.0500
     19 C19       -14.1054   -3.1724   58.7425 C.ar    1  ZINC000077537368   -0.1200
     20 C20       -14.4235   -2.4282   59.8596 C.ar    1  ZINC000077537368   -0.0700
     21 C21       -13.4055   -1.9175   60.6674 C.ar    1  ZINC000077537368   -0.0300
     22 C22       -13.7283   -1.1445   61.8288 C.1     1  ZINC000077537368    0.2500
     23 N23       -13.9845   -0.5312   62.7501 N.1     1  ZINC000077537368   -0.4100
     24 C24       -12.0712   -2.1645   60.3380 C.ar    1  ZINC000077537368   -0.0700
     25 C25       -11.7674   -2.9148   59.2210 C.ar    1  ZINC000077537368   -0.1000
     26 C26       -11.8282   -2.2920   55.8789 C.3     1  ZINC000077537368    0.0400
     27 C27       -12.2741   -1.4069   54.7162 C.3     1  ZINC000077537368    0.1200
     28 H28       -13.3260    1.0662   53.1091 H       1  ZINC000077537368    0.0800
     29 H29       -13.0093    1.9671   51.6070 H       1  ZINC000077537368    0.1000
     30 H30       -13.4356    0.2404   51.5361 H       1  ZINC000077537368    0.1100
     31 H31        -7.1833    0.1843   50.8105 H       1  ZINC000077537368    0.0600
     32 H32        -5.9670    0.9834   51.8355 H       1  ZINC000077537368    0.0600
     33 H33        -6.9490   -0.3477   52.4929 H       1  ZINC000077537368    0.0600
     34 H34        -8.7557    3.4444   51.6804 H       1  ZINC000077537368    0.0600
     35 H35        -7.0221    3.1979   51.3611 H       1  ZINC000077537368    0.0600
     36 H36        -8.2384    2.3988   50.3361 H       1  ZINC000077537368    0.0600
     37 H37        -7.6753    1.1199   54.3799 H       1  ZINC000077537368    0.0600
     38 H38        -6.6933    2.4510   53.7225 H       1  ZINC000077537368    0.0600
     39 H39        -8.4269    2.6977   54.0419 H       1  ZINC000077537368    0.0600
     40 H40        -8.8957   -1.2995   52.4389 H       1  ZINC000077537368    0.1700
     41 H41       -14.2209   -3.2414   53.7010 H       1  ZINC000077537368    0.0800
     42 H42       -13.0169   -4.0600   52.6710 H       1  ZINC000077537368    0.1200
     43 H43       -13.3182   -5.1572   54.9275 H       1  ZINC000077537368    0.0900
     44 H44       -11.6514   -4.6109   54.6222 H       1  ZINC000077537368    0.0400
     45 H45       -13.0370   -5.1393   57.1936 H       1  ZINC000077537368    0.0900
     46 H46       -11.3823   -4.4840   57.2174 H       1  ZINC000077537368    0.0500
     47 H47       -14.8918   -3.5680   58.1168 H       1  ZINC000077537368    0.1300
     48 H48       -15.4575   -2.2405   60.1085 H       1  ZINC000077537368    0.1300
     49 H49       -11.2791   -1.7725   60.9586 H       1  ZINC000077537368    0.1300
     50 H50       -10.7360   -3.1069   58.9652 H       1  ZINC000077537368    0.1400
     51 H51       -11.8521   -1.7176   56.8050 H       1  ZINC000077537368    0.1000
     52 H52       -10.8135   -2.6449   55.6954 H       1  ZINC000077537368    0.0400
     53 H53       -11.5412   -0.6161   54.5560 H       1  ZINC000077537368    0.1000
     54 H54       -13.2464   -0.9687   54.9415 H       1  ZINC000077537368    0.0800
@<TRIPOS>BOND
     1     1     2    1
     2     1    28    1
     3     1    29    1
     4     1    30    1
     5     2    10    1
     6     2     3    1
     7     3     4    2
     8     4     5    1
     9     4     9    1
    10     5     6    1
    11     5     7    1
    12     5     8    1
    13     6    31    1
    14     6    32    1
    15     6    33    1
    16     7    34    1
    17     7    35    1
    18     7    36    1
    19     8    37    1
    20     8    38    1
    21     8    39    1
    22     9    10    2
    23     9    40    1
    24    10    11    1
    25    11    12    2
    26    11    13   am
    27    13    27    1
    28    13    14    1
    29    14    15    1
    30    14    41    1
    31    14    42    1
    32    15    16    1
    33    15    43    1
    34    15    44    1
    35    16    17    1
    36    16    26    1
    37    17    18    1
    38    17    45    1
    39    17    46    1
    40    18    25   ar
    41    18    19   ar
    42    19    20   ar
    43    19    47    1
    44    20    21   ar
    45    20    48    1
    46    21    22    1
    47    21    24   ar
    48    22    23    3
    49    24    25   ar
    50    24    49    1
    51    25    50    1
    52    26    27    1
    53    26    51    1
    54    26    52    1
    55    27    53    1
    56    27    54    1
@<TRIPOS>SUBSTRUCTURE
     1 ZINC000077537368        1 TEMP              0 ****  ****    0 ROOT


##########                                Name:    ZINC000012979878
##########                DOCK_Rotatable_Bonds:                   7
##########                         Heavy_Atoms:                  26
##########                    Molecular_Weight:             388.874
##########                DOCK_Rotatable_Bonds:                   7
##########                       Formal_Charge:          -0.0100003
##########                     HBond_Acceptors:                   7
##########                        HBond_Donors:                   1
##########                         Heavy_Atoms:                  26
##########                          Grid_Score:          -30.256836
##########                     Grid_vdw_energy:          -30.205019
##########                      Grid_es_energy:           -0.051817
##########           Internal_energy_repulsive:            8.249652

@<TRIPOS>MOLECULE
ZINC000012979878
 43 45 1 0 0
SMALL
USER_CHARGES


@<TRIPOS>ATOM
      1 C1        -16.4512   -2.4817   48.7385 C.3     1  <0>         0.0300
      2 O2        -15.7721   -1.3559   48.1784 O.3     1  <0>        -0.3100
      3 C3        -14.8506   -0.7382   48.9633 C.ar    1  <0>         0.1500
      4 C4        -14.1269    0.3378   48.4689 C.ar    1  <0>        -0.2200
      5 C5        -13.1891    0.9669   49.2657 C.ar    1  <0>        -0.0600
      6 C6        -12.9693    0.5273   50.5564 C.ar    1  <0>        -0.1800
      7 C7        -13.6909   -0.5496   51.0569 C.ar    1  <0>         0.1800
      8 N8        -13.4685   -0.9947   52.3637 N.am    1  <0>        -0.6700
      9 C9        -12.3310   -1.6506   52.6677 C.2     1  <0>         0.6000
     10 O10       -11.4976   -1.8555   51.8049 O.2     1  <0>        -0.4900
     11 C11       -12.0976   -2.1174   54.0382 C.2     1  <0>        -0.3000
     12 C12       -12.2303   -3.3925   54.4825 C.2     1  <0>         0.1600
     13 C13       -12.6497   -4.5314   53.5891 C.3     1  <0>        -0.0900
     14 N14       -11.9617   -3.5481   55.7546 N.2     1  <0>        -0.4500
     15 C15       -11.6106   -2.4959   56.4215 C.2     1  <0>         0.0600
     16 C16       -11.2652   -2.4828   57.8884 C.3     1  <0>         0.1300
     17 O17       -10.0908   -1.6952   58.0942 O.3     1  <0>        -0.3000
     18 C18        -9.8054   -1.3356   59.3736 C.ar    1  <0>         0.1300
     19 C19        -9.2205   -2.2495   60.2378 C.ar    1  <0>        -0.2000
     20 C20        -8.9312   -1.8823   61.5377 C.ar    1  <0>        -0.0700
     21 C21        -9.2249   -0.6038   61.9780 C.ar    1  <0>        -0.0700
     22 Cl22       -8.8609   -0.1448   63.6121 Cl      1  <0>        -0.0700
     23 C23        -9.8079    0.3093   61.1173 C.ar    1  <0>        -0.0700
     24 C24       -10.0934   -0.0524   59.8150 C.ar    1  <0>        -0.1300
     25 S25       -11.5873   -1.1243   55.4013 S.3     1  <0>         0.2000
     26 C26       -14.6370   -1.1788   50.2601 C.ar    1  <0>        -0.1500
     27 H27       -15.7247   -3.2516   48.9986 H       1  <0>         0.0600
     28 H28       -16.9896   -2.1725   49.6343 H       1  <0>         0.0600
     29 H29       -17.1572   -2.8797   48.0095 H       1  <0>         0.1000
     30 H30       -14.2966    0.6837   47.4599 H       1  <0>         0.1300
     31 H31       -12.6267    1.8035   48.8782 H       1  <0>         0.1300
     32 H32       -12.2358    1.0206   51.1771 H       1  <0>         0.1300
     33 H33       -14.1328   -0.8315   53.0514 H       1  <0>         0.4100
     34 H34       -11.7657   -4.9885   53.1441 H       1  <0>         0.0900
     35 H35       -13.1865   -5.2758   54.1771 H       1  <0>         0.0800
     36 H36       -13.2997   -4.1538   52.7999 H       1  <0>         0.1000
     37 H37       -12.0935   -2.0545   58.4528 H       1  <0>         0.0900
     38 H38       -11.0830   -3.5025   58.2278 H       1  <0>         0.1000
     39 H39        -8.9918   -3.2478   59.8947 H       1  <0>         0.1400
     40 H40        -8.4758   -2.5935   62.2108 H       1  <0>         0.1400
     41 H41       -10.0361    1.3068   61.4627 H       1  <0>         0.1400
     42 H42       -10.5486    0.6606   59.1435 H       1  <0>         0.1400
     43 H43       -15.1996   -2.0156   50.6467 H       1  <0>         0.1400
@<TRIPOS>BOND
     1     1     2    1
     2     1    27    1
     3     1    28    1
     4     1    29    1
     5     2     3    1
     6     3    26   ar
     7     3     4   ar
     8     4     5   ar
     9     4    30    1
    10     5     6   ar
    11     5    31    1
    12     6     7   ar
    13     6    32    1
    14     7     8    1
    15     7    26   ar
    16     8     9   am
    17     8    33    1
    18     9    10    2
    19     9    11    1
    20    11    25    1
    21    11    12    2
    22    12    13    1
    23    12    14    1
    24    13    34    1
    25    13    35    1
    26    13    36    1
    27    14    15    2
    28    15    16    1
    29    15    25    1
    30    16    17    1
    31    16    37    1
    32    16    38    1
    33    17    18    1
    34    18    24   ar
    35    18    19   ar
    36    19    20   ar
    37    19    39    1
    38    20    21   ar
    39    20    40    1
    40    21    22    1
    41    21    23   ar
    42    23    24   ar
    43    23    41    1
    44    24    42    1
    45    26    43    1
@<TRIPOS>SUBSTRUCTURE
     1 <0>         1 TEMP              0 ****  ****    0 ROOT


##########                                Name:    ZINC000518234532
##########                DOCK_Rotatable_Bonds:                   5
##########                         Heavy_Atoms:                  25
##########                    Molecular_Weight:             408.267
##########                DOCK_Rotatable_Bonds:                   5
##########                       Formal_Charge:         -0.00999981
##########                     HBond_Acceptors:                   5
##########                        HBond_Donors:                   1
##########                         Heavy_Atoms:                  25
##########                          Grid_Score:          -30.229233
##########                     Grid_vdw_energy:          -29.764515
##########                      Grid_es_energy:           -0.464718
##########           Internal_energy_repulsive:           19.907818

@<TRIPOS>MOLECULE
ZINC000518234532
 44 46 1 0 0
SMALL
USER_CHARGES


@<TRIPOS>ATOM
      1 C1        -10.3815   -4.1514   58.5566 C.3     1  ZINC000518234532   -0.1600
      2 C2        -11.5589   -3.2390   58.2067 C.3     1  ZINC000518234532    0.1800
      3 H3        -12.4586   -3.5996   58.7053 H       1  ZINC000518234532    0.1100
      4 N4        -11.2678   -1.8738   58.6515 N.am    1  ZINC000518234532   -0.7300
      5 C5        -11.3699   -1.5542   59.9569 C.2     1  ZINC000518234532    0.5200
      6 O6        -11.7013   -2.3972   60.7634 O.2     1  ZINC000518234532   -0.5200
      7 C7        -11.0723   -0.1495   60.4142 C.3     1  ZINC000518234532   -0.0700
      8 H8        -11.3206    0.5521   59.6178 H       1  ZINC000518234532    0.1100
      9 C9         -9.5859   -0.0284   60.7556 C.3     1  ZINC000518234532   -0.1400
     10 C10       -11.8957    0.1660   61.6362 C.ar    1  ZINC000518234532   -0.1000
     11 C11       -11.2735    0.3966   62.8483 C.ar    1  ZINC000518234532   -0.0600
     12 C12       -12.0287    0.6860   63.9697 C.ar    1  ZINC000518234532   -0.1300
     13 C13       -13.4068    0.7446   63.8800 C.ar    1  ZINC000518234532   -0.0900
     14 C14       -14.0315    0.5138   62.6688 C.ar    1  ZINC000518234532   -0.1600
     15 C15       -13.2759    0.2305   61.5439 C.ar    1  ZINC000518234532    0.1000
     16 F16       -13.8854    0.0048   60.3595 F       1  ZINC000518234532   -0.1400
     17 C17       -11.7740   -3.2462   56.7152 C.ar    1  ZINC000518234532   -0.0600
     18 C18       -11.0630   -2.3755   55.9114 C.ar    1  ZINC000518234532   -0.1100
     19 C19       -11.2583   -2.3803   54.5382 C.ar    1  ZINC000518234532    0.0800
     20 C20       -12.1689   -3.2646   53.9725 C.ar    1  ZINC000518234532    0.0600
     21 C21       -12.8804   -4.1355   54.7842 C.ar    1  ZINC000518234532   -0.0800
     22 C22       -12.6785   -4.1285   56.1521 C.ar    1  ZINC000518234532   -0.0800
     23 Br23      -13.6494   -5.3178   57.2560 Br      1  ZINC000518234532   -0.0300
     24 O24       -12.3698   -3.2911   52.6266 O.3     1  ZINC000518234532   -0.3000
     25 C25       -11.9161   -2.1533   51.8855 C.3     1  ZINC000518234532    0.0200
     26 C26       -10.4986   -1.8049   52.3597 C.3     1  ZINC000518234532    0.0200
     27 O27       -10.5534   -1.5137   53.7603 O.3     1  ZINC000518234532   -0.3000
     28 H28       -10.2258   -4.1461   59.6354 H       1  ZINC000518234532    0.0700
     29 H29       -10.5980   -5.1670   58.2256 H       1  ZINC000518234532    0.0700
     30 H30        -9.4817   -3.7908   58.0580 H       1  ZINC000518234532    0.0600
     31 H31       -11.0016   -1.2000   58.0066 H       1  ZINC000518234532    0.4000
     32 H32        -8.9902   -0.2565   59.8716 H       1  ZINC000518234532    0.0700
     33 H33        -9.3706    0.9877   61.0864 H       1  ZINC000518234532    0.0700
     34 H34        -9.3376   -0.7300   61.5520 H       1  ZINC000518234532    0.0700
     35 H35       -10.1968    0.3503   62.9198 H       1  ZINC000518234532    0.1300
     36 H36       -11.5415    0.8661   64.9165 H       1  ZINC000518234532    0.1300
     37 H37       -13.9957    0.9704   64.7567 H       1  ZINC000518234532    0.1300
     38 H38       -15.1083    0.5590   62.5990 H       1  ZINC000518234532    0.1400
     39 H39       -10.3548   -1.6900   56.3530 H       1  ZINC000518234532    0.1400
     40 H40       -13.5903   -4.8221   54.3472 H       1  ZINC000518234532    0.1500
     41 H41       -11.9000   -2.3901   50.8216 H       1  ZINC000518234532    0.1300
     42 H42       -12.5816   -1.3088   52.0646 H       1  ZINC000518234532    0.0800
     43 H43        -9.8345   -2.6516   52.1861 H       1  ZINC000518234532    0.0800
     44 H44       -10.1334   -0.9332   51.8168 H       1  ZINC000518234532    0.1300
@<TRIPOS>BOND
     1     1     2    1
     2     1    28    1
     3     1    29    1
     4     1    30    1
     5     2     3    1
     6     2     4    1
     7     2    17    1
     8     4     5   am
     9     4    31    1
    10     5     6    2
    11     5     7    1
    12     7     8    1
    13     7     9    1
    14     7    10    1
    15     9    32    1
    16     9    33    1
    17     9    34    1
    18    10    15   ar
    19    10    11   ar
    20    11    12   ar
    21    11    35    1
    22    12    13   ar
    23    12    36    1
    24    13    14   ar
    25    13    37    1
    26    14    15   ar
    27    14    38    1
    28    15    16    1
    29    17    22   ar
    30    17    18   ar
    31    18    19   ar
    32    18    39    1
    33    19    27    1
    34    19    20   ar
    35    20    21   ar
    36    20    24    1
    37    21    22   ar
    38    21    40    1
    39    22    23    1
    40    24    25    1
    41    25    26    1
    42    25    41    1
    43    25    42    1
    44    26    27    1
    45    26    43    1
    46    26    44    1
@<TRIPOS>SUBSTRUCTURE
     1 ZINC000518234532        1 TEMP              0 ****  ****    0 ROOT


##########                                Name:    ZINC000464752079
##########                DOCK_Rotatable_Bonds:                   7
##########                         Heavy_Atoms:                  29
##########                    Molecular_Weight:             404.413
##########                DOCK_Rotatable_Bonds:                   7
##########                       Formal_Charge:         7.45058e-08
##########                     HBond_Acceptors:                   8
##########                        HBond_Donors:                   1
##########                         Heavy_Atoms:                  29
##########                          Grid_Score:          -30.228077
##########                     Grid_vdw_energy:          -30.011528
##########                      Grid_es_energy:           -0.216549
##########           Internal_energy_repulsive:           16.133326

@<TRIPOS>MOLECULE
ZINC000464752079
 51 54 1 0 0
SMALL
USER_CHARGES


@<TRIPOS>ATOM
      1 C1        -15.0207   -0.8507   55.2463 C.3     1  ZINC000464752079   -0.1200
      2 C2        -13.7740   -1.6335   55.5687 C.ar    1  ZINC000464752079   -0.0800
      3 C3        -12.8515   -1.9036   54.5757 C.ar    1  ZINC000464752079   -0.1200
      4 C4        -11.7076   -2.6218   54.8715 C.ar    1  ZINC000464752079   -0.1200
      5 C5        -11.4866   -3.0694   56.1603 C.ar    1  ZINC000464752079   -0.1300
      6 C6        -12.4091   -2.7985   57.1539 C.ar    1  ZINC000464752079   -0.0900
      7 C7        -13.5504   -2.0768   56.8591 C.ar    1  ZINC000464752079   -0.0800
      8 C8        -14.5559   -1.7815   57.9421 C.3     1  ZINC000464752079    0.2000
      9 H9        -15.1605   -0.9191   57.6612 H       1  ZINC000464752079    0.0900
     10 C10       -15.4640   -3.0093   58.1641 C.3     1  ZINC000464752079   -0.1200
     11 C11       -15.6581   -3.0242   59.7034 C.3     1  ZINC000464752079   -0.1300
     12 C12       -14.2740   -2.5331   60.1961 C.3     1  ZINC000464752079    0.1000
     13 N13       -13.8611   -1.5134   59.2098 N.am    1  ZINC000464752079   -0.6300
     14 C14       -12.9911   -0.5092   59.4355 C.2     1  ZINC000464752079    0.7200
     15 O15       -12.7248    0.2759   58.5460 O.2     1  ZINC000464752079   -0.5700
     16 N16       -12.4160   -0.3753   60.6470 N.am    1  ZINC000464752079   -0.7400
     17 C17       -11.4716    0.7173   60.8928 C.3     1  ZINC000464752079    0.1900
     18 C18       -10.6341    0.3945   62.1034 C.ar    1  ZINC000464752079   -0.1200
     19 C19       -10.9023    1.0092   63.3120 C.ar    1  ZINC000464752079   -0.0500
     20 C20       -10.1340    0.7151   64.4266 C.ar    1  ZINC000464752079    0.0100
     21 C21        -9.0904   -0.2016   64.3286 C.ar    1  ZINC000464752079    0.0800
     22 C22        -8.8242   -0.8174   63.1165 C.ar    1  ZINC000464752079   -0.1800
     23 C23        -9.5988   -0.5232   62.0048 C.ar    1  ZINC000464752079    0.1400
     24 O24        -9.3377   -1.1278   60.8152 O.3     1  ZINC000464752079   -0.3100
     25 C25        -9.4141   -2.5543   60.7820 C.3     1  ZINC000464752079    0.4100
     26 F26       -10.6643   -2.9431   60.2889 F       1  ZINC000464752079   -0.2000
     27 F27        -8.4079   -3.0561   59.9496 F       1  ZINC000464752079   -0.2000
     28 O28        -8.4936   -0.3158   65.5509 O.3     1  ZINC000464752079   -0.3000
     29 C29        -8.9185    0.8406   66.2961 C.3     1  ZINC000464752079    0.2100
     30 O30       -10.1909    1.1755   65.7114 O.3     1  ZINC000464752079   -0.3000
     31 H31       -14.8274    0.2132   55.3836 H       1  ZINC000464752079    0.0700
     32 H32       -15.3094   -1.0369   54.2118 H       1  ZINC000464752079    0.0700
     33 H33       -15.8272   -1.1621   55.9102 H       1  ZINC000464752079    0.0700
     34 H34       -13.0241   -1.5538   53.5686 H       1  ZINC000464752079    0.1200
     35 H35       -10.9871   -2.8334   54.0953 H       1  ZINC000464752079    0.1200
     36 H36       -10.5935   -3.6310   56.3913 H       1  ZINC000464752079    0.1200
     37 H37       -12.2365   -3.1485   58.1609 H       1  ZINC000464752079    0.1100
     38 H38       -16.4197   -2.8791   57.6561 H       1  ZINC000464752079    0.0900
     39 H39       -14.9690   -3.9207   57.8290 H       1  ZINC000464752079    0.0800
     40 H40       -16.4471   -2.3351   60.0043 H       1  ZINC000464752079    0.0800
     41 H41       -15.8649   -4.0328   60.0614 H       1  ZINC000464752079    0.0900
     42 H42       -14.3605   -2.0872   61.1870 H       1  ZINC000464752079    0.0700
     43 H43       -13.5620   -3.3582   60.2112 H       1  ZINC000464752079    0.0700
     44 H44       -12.6276   -1.0024   61.3562 H       1  ZINC000464752079    0.4000
     45 H45       -10.8236    0.8396   60.0249 H       1  ZINC000464752079    0.0800
     46 H46       -12.0226    1.6413   61.0680 H       1  ZINC000464752079    0.0800
     47 H47       -11.7118    1.7202   63.3874 H       1  ZINC000464752079    0.1500
     48 H48        -8.0153   -1.5288   63.0383 H       1  ZINC000464752079    0.1500
     49 H49        -9.2822   -2.9488   61.7896 H       1  ZINC000464752079    0.1900
     50 H50        -9.0348    0.5945   67.3516 H       1  ZINC000464752079    0.1400
     51 H51        -8.2108    1.6597   66.1685 H       1  ZINC000464752079    0.0900
@<TRIPOS>BOND
     1     1     2    1
     2     1    31    1
     3     1    32    1
     4     1    33    1
     5     2     7   ar
     6     2     3   ar
     7     3     4   ar
     8     3    34    1
     9     4     5   ar
    10     4    35    1
    11     5     6   ar
    12     5    36    1
    13     6     7   ar
    14     6    37    1
    15     7     8    1
    16     8     9    1
    17     8    13    1
    18     8    10    1
    19    10    11    1
    20    10    38    1
    21    10    39    1
    22    11    12    1
    23    11    40    1
    24    11    41    1
    25    12    13    1
    26    12    42    1
    27    12    43    1
    28    13    14   am
    29    14    15    2
    30    14    16   am
    31    16    17    1
    32    16    44    1
    33    17    18    1
    34    17    45    1
    35    17    46    1
    36    18    23   ar
    37    18    19   ar
    38    19    20   ar
    39    19    47    1
    40    20    30    1
    41    20    21   ar
    42    21    22   ar
    43    21    28    1
    44    22    23   ar
    45    22    48    1
    46    23    24    1
    47    24    25    1
    48    25    26    1
    49    25    27    1
    50    25    49    1
    51    28    29    1
    52    29    30    1
    53    29    50    1
    54    29    51    1
@<TRIPOS>SUBSTRUCTURE
     1 ZINC000464752079        1 TEMP              0 ****  ****    0 ROOT


##########                                Name:    ZINC001456096501
##########                DOCK_Rotatable_Bonds:                   7
##########                         Heavy_Atoms:                  24
##########                    Molecular_Weight:             333.431
##########                DOCK_Rotatable_Bonds:                   7
##########                       Formal_Charge:          -0.0200003
##########                     HBond_Acceptors:                   6
##########                        HBond_Donors:                   0
##########                         Heavy_Atoms:                  24
##########                          Grid_Score:          -30.185904
##########                     Grid_vdw_energy:          -29.364676
##########                      Grid_es_energy:           -0.821229
##########           Internal_energy_repulsive:          144.191071

@<TRIPOS>MOLECULE
ZINC001456096501
 51 52 1 0 0
SMALL
USER_CHARGES


@<TRIPOS>ATOM
      1 C1         -9.7973   -2.9404   59.9216 C.3     1  ZINC001456096501    0.0400
      2 O2        -10.8223   -2.7637   60.9015 O.3     1  ZINC001456096501   -0.2900
      3 C3        -11.1127   -1.4918   61.2649 C.ar    1  ZINC001456096501    0.3700
      4 N4        -10.1381   -0.6094   61.4042 N.ar    1  ZINC001456096501   -0.5400
      5 C5        -10.3760    0.6394   61.7560 C.ar    1  ZINC001456096501    0.1600
      6 C6        -11.6639    1.0829   61.9961 C.ar    1  ZINC001456096501   -0.2200
      7 C7        -12.7226    0.2015   61.8652 C.ar    1  ZINC001456096501   -0.0200
      8 C8        -12.4468   -1.1170   61.4858 C.ar    1  ZINC001456096501   -0.2000
      9 C9        -13.5378   -2.0979   61.3309 C.2     1  ZINC001456096501    0.5900
     10 O10       -13.9429   -2.7143   62.2973 O.2     1  ZINC001456096501   -0.5100
     11 N11       -14.0855   -2.3106   60.1179 N.am    1  ZINC001456096501   -0.6200
     12 C12       -15.1736   -3.2542   59.8225 C.3     1  ZINC001456096501    0.1000
     13 C13       -15.4497   -3.1750   58.3063 C.3     1  ZINC001456096501   -0.1200
     14 C14       -14.1213   -2.6074   57.7403 C.3     1  ZINC001456096501   -0.1200
     15 H15       -13.3839   -3.3988   57.6061 H       1  ZINC001456096501    0.0900
     16 C16       -14.3605   -1.8565   56.4288 C.3     1  ZINC001456096501    0.1200
     17 N17       -13.5923   -2.4920   55.3553 N.am    1  ZINC001456096501   -0.6200
     18 C18       -13.9663   -3.8253   54.8774 C.3     1  ZINC001456096501    0.0600
     19 C19       -12.5417   -1.8498   54.8073 C.2     1  ZINC001456096501    0.5200
     20 O20       -12.2320   -0.7460   55.2029 O.2     1  ZINC001456096501   -0.5300
     21 C21       -11.7516   -2.5036   53.7031 C.3     1  ZINC001456096501   -0.0800
     22 C22       -10.8117   -1.4751   53.0706 C.3     1  ZINC001456096501   -0.1300
     23 C23       -10.9302   -3.6590   54.2786 C.3     1  ZINC001456096501   -0.1500
     24 C24       -12.7106   -3.0404   52.6386 C.3     1  ZINC001456096501   -0.1700
     25 C25       -13.6970   -1.6309   58.8686 C.3     1  ZINC001456096501    0.1200
     26 H26       -10.0825   -2.4307   59.0013 H       1  ZINC001456096501    0.0600
     27 H27        -8.8624   -2.5216   60.2941 H       1  ZINC001456096501    0.0600
     28 H28        -9.6649   -4.0038   59.7220 H       1  ZINC001456096501    0.1000
     29 H29        -9.5504    1.3279   61.8589 H       1  ZINC001456096501    0.1700
     30 H30       -11.8418    2.1086   62.2839 H       1  ZINC001456096501    0.1500
     31 H31       -13.7370    0.5241   62.0477 H       1  ZINC001456096501    0.1500
     32 H32       -14.8702   -4.2659   60.0918 H       1  ZINC001456096501    0.0700
     33 H33       -16.0687   -2.9733   60.3775 H       1  ZINC001456096501    0.0700
     34 H34       -15.6504   -4.1658   57.8986 H       1  ZINC001456096501    0.0900
     35 H35       -16.2779   -2.4970   58.1001 H       1  ZINC001456096501    0.0800
     36 H36       -15.4218   -1.8851   56.1821 H       1  ZINC001456096501    0.0800
     37 H37       -14.0410   -0.8203   56.5399 H       1  ZINC001456096501    0.0900
     38 H38       -14.6423   -3.7304   54.0276 H       1  ZINC001456096501    0.0600
     39 H39       -13.0708   -4.3658   54.5706 H       1  ZINC001456096501    0.0900
     40 H40       -14.4641   -4.3720   55.6783 H       1  ZINC001456096501    0.0700
     41 H41       -10.1285   -1.0927   53.8290 H       1  ZINC001456096501    0.0600
     42 H42       -10.2403   -1.9479   52.2720 H       1  ZINC001456096501    0.0600
     43 H43       -11.3969   -0.6520   52.6606 H       1  ZINC001456096501    0.0600
     44 H44       -11.5842   -4.3240   54.8427 H       1  ZINC001456096501    0.0700
     45 H45       -10.4627   -4.2132   53.4648 H       1  ZINC001456096501    0.0700
     46 H46       -10.1585   -3.2627   54.9386 H       1  ZINC001456096501    0.0600
     47 H47       -13.2958   -2.2172   52.2285 H       1  ZINC001456096501    0.0600
     48 H48       -12.1391   -3.5131   51.8398 H       1  ZINC001456096501    0.0700
     49 H49       -13.3802   -3.7730   53.0891 H       1  ZINC001456096501    0.0800
     50 H50       -14.2238   -0.6821   58.7672 H       1  ZINC001456096501    0.0800
     51 H51       -12.6190   -1.4716   58.8469 H       1  ZINC001456096501    0.0700
@<TRIPOS>BOND
     1     1     2    1
     2     1    26    1
     3     1    27    1
     4     1    28    1
     5     2     3    1
     6     3     8   ar
     7     3     4   ar
     8     4     5   ar
     9     5     6   ar
    10     5    29    1
    11     6     7   ar
    12     6    30    1
    13     7     8   ar
    14     7    31    1
    15     8     9    1
    16     9    10    2
    17     9    11   am
    18    11    25    1
    19    11    12    1
    20    12    13    1
    21    12    32    1
    22    12    33    1
    23    13    14    1
    24    13    34    1
    25    13    35    1
    26    14    15    1
    27    14    16    1
    28    14    25    1
    29    16    17    1
    30    16    36    1
    31    16    37    1
    32    17    18    1
    33    17    19   am
    34    18    38    1
    35    18    39    1
    36    18    40    1
    37    19    20    2
    38    19    21    1
    39    21    22    1
    40    21    23    1
    41    21    24    1
    42    22    41    1
    43    22    42    1
    44    22    43    1
    45    23    44    1
    46    23    45    1
    47    23    46    1
    48    24    47    1
    49    24    48    1
    50    24    49    1
    51    25    50    1
    52    25    51    1
@<TRIPOS>SUBSTRUCTURE
     1 ZINC001456096501        1 TEMP              0 ****  ****    0 ROOT


##########                                Name:    ZINC000156038173
##########                DOCK_Rotatable_Bonds:                  10
##########                         Heavy_Atoms:                  27
##########                    Molecular_Weight:             396.357
##########                DOCK_Rotatable_Bonds:                  10
##########                       Formal_Charge:         -0.00999981
##########                     HBond_Acceptors:                  10
##########                        HBond_Donors:                   1
##########                         Heavy_Atoms:                  27
##########                          Grid_Score:          -30.142014
##########                     Grid_vdw_energy:          -29.996222
##########                      Grid_es_energy:           -0.145792
##########           Internal_energy_repulsive:           40.107941

@<TRIPOS>MOLECULE
ZINC000156038173
 48 48 1 0 0
SMALL
USER_CHARGES


@<TRIPOS>ATOM
      1 C1        -11.5803   -4.1237   53.5811 C.3     1  ZINC000156038173    0.0700
      2 N2        -12.0790   -2.7494   53.6738 N.am    1  ZINC000156038173   -0.6300
      3 C3        -12.3771   -1.9944   52.4541 C.3     1  ZINC000156038173    0.1500
      4 C4        -13.8875   -1.9955   52.2100 C.3     1  ZINC000156038173   -0.1400
      5 C5        -14.1775   -1.4052   50.8540 C.2     1  ZINC000156038173    0.4700
      6 O6        -13.4990   -0.4989   50.4320 O.2     1  ZINC000156038173   -0.5000
      7 O7        -15.1895   -1.8863   50.1151 O.3     1  ZINC000156038173   -0.3500
      8 C8        -15.4109   -1.2697   48.8193 C.3     1  ZINC000156038173    0.1200
      9 C9        -15.7105    0.2189   49.0073 C.3     1  ZINC000156038173   -0.1800
     10 C10       -14.1580   -1.4326   47.9563 C.3     1  ZINC000156038173   -0.1400
     11 C11       -16.5972   -1.9455   48.1289 C.3     1  ZINC000156038173   -0.1800
     12 C12       -12.2638   -2.1795   54.8811 C.2     1  ZINC000156038173    0.7100
     13 O13       -12.6791   -1.0394   54.9581 O.2     1  ZINC000156038173   -0.5700
     14 N14       -11.9881   -2.8735   56.0031 N.am    1  ZINC000156038173   -0.7400
     15 C15       -12.1905   -2.2548   57.3155 C.3     1  ZINC000156038173    0.1700
     16 H16       -12.2781   -1.1746   57.1983 H       1  ZINC000156038173    0.1500
     17 C17       -11.0162   -2.5697   58.2059 C.ar    1  ZINC000156038173   -0.1300
     18 C18       -10.4754   -3.8417   58.2122 C.ar    1  ZINC000156038173   -0.0700
     19 C19        -9.3981   -4.1323   59.0286 C.ar    1  ZINC000156038173   -0.1000
     20 C20        -8.8596   -3.1515   59.8401 C.ar    1  ZINC000156038173   -0.1100
     21 C21        -9.3990   -1.8768   59.8361 C.ar    1  ZINC000156038173    0.0700
     22 F22        -8.8733   -0.9176   60.6290 F       1  ZINC000156038173   -0.1200
     23 C23       -10.4757   -1.5838   59.0131 C.ar    1  ZINC000156038173    0.1000
     24 F24       -11.0038   -0.3404   59.0076 F       1  ZINC000156038173   -0.1200
     25 C25       -13.4712   -2.8047   57.9467 C.3     1  ZINC000156038173    0.4500
     26 F26       -13.3635   -2.7528   59.3406 F       1  ZINC000156038173   -0.1700
     27 F27       -14.5629   -2.0333   57.5343 F       1  ZINC000156038173   -0.1600
     28 F28       -13.6580   -4.1310   57.5424 F       1  ZINC000156038173   -0.1700
     29 H29       -10.4912   -4.1130   53.5398 H       1  ZINC000156038173    0.0600
     30 H30       -11.9053   -4.6879   54.4552 H       1  ZINC000156038173    0.0700
     31 H31       -11.9734   -4.5928   52.6791 H       1  ZINC000156038173    0.0800
     32 H32       -12.0281   -0.9680   52.5679 H       1  ZINC000156038173    0.1000
     33 H33       -11.8717   -2.4583   51.6071 H       1  ZINC000156038173    0.0900
     34 H34       -14.2610   -3.0187   52.2482 H       1  ZINC000156038173    0.1100
     35 H35       -14.3802   -1.3999   52.9785 H       1  ZINC000156038173    0.1100
     36 H36       -14.8654    0.7003   49.4992 H       1  ZINC000156038173    0.0600
     37 H37       -15.8767    0.6817   48.0345 H       1  ZINC000156038173    0.0700
     38 H38       -16.6030    0.3349   49.6221 H       1  ZINC000156038173    0.0800
     39 H39       -13.9445   -2.4931   47.8223 H       1  ZINC000156038173    0.0700
     40 H40       -14.3241   -0.9697   46.9836 H       1  ZINC000156038173    0.0800
     41 H41       -13.3128   -0.9512   48.4482 H       1  ZINC000156038173    0.0700
     42 H42       -17.4897   -1.8294   48.7437 H       1  ZINC000156038173    0.0800
     43 H43       -16.7633   -1.4826   47.1561 H       1  ZINC000156038173    0.0700
     44 H44       -16.3837   -3.0060   47.9949 H       1  ZINC000156038173    0.0600
     45 H45       -11.6556   -3.7827   55.9417 H       1  ZINC000156038173    0.4100
     46 H46       -10.8950   -4.6094   57.5791 H       1  ZINC000156038173    0.1400
     47 H47        -8.9770   -5.1267   59.0325 H       1  ZINC000156038173    0.1500
     48 H48        -8.0183   -3.3799   60.4777 H       1  ZINC000156038173    0.1500
@<TRIPOS>BOND
     1     1     2    1
     2     1    29    1
     3     1    30    1
     4     1    31    1
     5     2     3    1
     6     2    12   am
     7     3     4    1
     8     3    32    1
     9     3    33    1
    10     4     5    1
    11     4    34    1
    12     4    35    1
    13     5     6    2
    14     5     7    1
    15     7     8    1
    16     8     9    1
    17     8    10    1
    18     8    11    1
    19     9    36    1
    20     9    37    1
    21     9    38    1
    22    10    39    1
    23    10    40    1
    24    10    41    1
    25    11    42    1
    26    11    43    1
    27    11    44    1
    28    12    13    2
    29    12    14   am
    30    14    15    1
    31    14    45    1
    32    15    16    1
    33    15    17    1
    34    15    25    1
    35    17    23   ar
    36    17    18   ar
    37    18    19   ar
    38    18    46    1
    39    19    20   ar
    40    19    47    1
    41    20    21   ar
    42    20    48    1
    43    21    22    1
    44    21    23   ar
    45    23    24    1
    46    25    26    1
    47    25    27    1
    48    25    28    1
@<TRIPOS>SUBSTRUCTURE
     1 ZINC000156038173        1 TEMP              0 ****  ****    0 ROOT


##########                                Name:    ZINC001045438664
##########                DOCK_Rotatable_Bonds:                   6
##########                         Heavy_Atoms:                  26
##########                    Molecular_Weight:             352.439
##########                DOCK_Rotatable_Bonds:                   6
##########                       Formal_Charge:          -0.0099999
##########                     HBond_Acceptors:                   7
##########                        HBond_Donors:                   2
##########                         Heavy_Atoms:                  26
##########                          Grid_Score:          -30.116447
##########                     Grid_vdw_energy:          -30.200005
##########                      Grid_es_energy:            0.083557
##########           Internal_energy_repulsive:            6.463512

@<TRIPOS>MOLECULE
ZINC001045438664
 50 53 1 0 0
SMALL
USER_CHARGES


@<TRIPOS>ATOM
      1 C1         -8.7093   -2.4223   60.5321 C.3     1  ZINC001045438664   -0.1100
      2 C2         -9.9779   -2.3137   59.7258 C.ar    1  ZINC001045438664    0.2100
      3 C3        -10.0157   -2.7590   58.4194 C.ar    1  ZINC001045438664   -0.3000
      4 C4        -11.2140   -2.6379   57.7122 C.ar    1  ZINC001045438664    0.4500
      5 N5        -11.3030   -3.0703   56.3991 N.pl3   1  ZINC001045438664   -0.7100
      6 C6        -12.4703   -2.7149   55.5883 C.3     1  ZINC001045438664    0.1500
      7 H7        -12.9297   -1.8114   55.9894 H       1  ZINC001045438664    0.0900
      8 C8        -13.4836   -3.8607   55.6232 C.3     1  ZINC001045438664   -0.1300
      9 C9        -14.7027   -3.4894   54.7765 C.3     1  ZINC001045438664   -0.1200
     10 C10       -14.2637   -3.2405   53.3322 C.3     1  ZINC001045438664   -0.1200
     11 C11       -13.2505   -2.0946   53.2973 C.3     1  ZINC001045438664   -0.1300
     12 C12       -12.0314   -2.4659   54.1440 C.3     1  ZINC001045438664    0.1400
     13 H13       -11.5721   -3.3694   53.7429 H       1  ZINC001045438664    0.1000
     14 N14       -11.0612   -1.3688   54.1106 N.am    1  ZINC001045438664   -0.7200
     15 C15       -10.0691   -1.3740   53.1984 C.2     1  ZINC001045438664    0.5700
     16 O16        -9.9785   -2.2898   52.4043 O.2     1  ZINC001045438664   -0.5200
     17 C17        -9.0911   -0.2659   53.1636 C.ar    1  ZINC001045438664   -0.2500
     18 C18        -8.0549   -0.2500   52.2231 C.ar    1  ZINC001045438664    0.1900
     19 N19        -7.2032    0.7604   52.2274 N.ar    1  ZINC001045438664   -0.5200
     20 C20        -7.3197    1.7422   53.1000 C.ar    1  ZINC001045438664    0.3200
     21 N21        -8.2802    1.7666   54.0031 N.ar    1  ZINC001045438664   -0.5200
     22 C22        -9.1787    0.7997   54.0666 C.ar    1  ZINC001045438664    0.2100
     23 N23       -12.2681   -2.1013   58.3197 N.ar    1  ZINC001045438664   -0.5800
     24 C24       -12.1869   -1.6894   59.5687 C.ar    1  ZINC001045438664    0.4000
     25 C25       -13.4040   -1.0872   60.2222 C.3     1  ZINC001045438664   -0.1100
     26 C26       -14.6837   -1.9256   60.2402 C.3     1  ZINC001045438664   -0.1500
     27 C27       -13.8879   -1.7167   61.5301 C.3     1  ZINC001045438664   -0.1500
     28 N28       -11.0726   -1.7944   60.2642 N.ar    1  ZINC001045438664   -0.5600
     29 H29        -8.6880   -3.3820   61.0484 H       1  ZINC001045438664    0.0800
     30 H30        -7.8487   -2.3483   59.8672 H       1  ZINC001045438664    0.0800
     31 H31        -8.6737   -1.6152   61.2638 H       1  ZINC001045438664    0.0800
     32 H32        -9.1406   -3.1898   57.9559 H       1  ZINC001045438664    0.1400
     33 H33       -10.5925   -3.6087   56.0165 H       1  ZINC001045438664    0.4100
     34 H34       -13.0243   -4.7642   55.2222 H       1  ZINC001045438664    0.0700
     35 H35       -13.7963   -4.0380   56.6523 H       1  ZINC001045438664    0.0700
     36 H36       -15.4245   -4.3057   54.8013 H       1  ZINC001045438664    0.0700
     37 H37       -15.1619   -2.5859   55.1775 H       1  ZINC001045438664    0.0700
     38 H38       -13.8044   -4.1440   52.9311 H       1  ZINC001045438664    0.0700
     39 H39       -15.1322   -2.9759   52.7289 H       1  ZINC001045438664    0.0700
     40 H40       -12.9378   -1.9173   52.2682 H       1  ZINC001045438664    0.0800
     41 H41       -13.7098   -1.1911   53.6983 H       1  ZINC001045438664    0.0700
     42 H42       -11.1328   -0.6386   54.7451 H       1  ZINC001045438664    0.4000
     43 H43        -7.9528   -1.0507   51.5054 H       1  ZINC001045438664    0.1700
     44 H44        -6.6054    2.5519   53.0744 H       1  ZINC001045438664    0.2100
     45 H45        -9.9625    0.8268   54.8090 H       1  ZINC001045438664    0.1800
     46 H46       -13.5105   -0.0080   60.1134 H       1  ZINC001045438664    0.1300
     47 H47       -15.6325   -1.3978   60.1432 H       1  ZINC001045438664    0.1000
     48 H48       -14.6454   -2.9127   59.7795 H       1  ZINC001045438664    0.1100
     49 H49       -13.3259   -2.5663   61.9180 H       1  ZINC001045438664    0.1000
     50 H50       -14.3130   -1.0514   62.2817 H       1  ZINC001045438664    0.1000
@<TRIPOS>BOND
     1     1     2    1
     2     1    29    1
     3     1    30    1
     4     1    31    1
     5     2    28   ar
     6     2     3   ar
     7     3     4   ar
     8     3    32    1
     9     4     5    1
    10     4    23   ar
    11     5     6    1
    12     5    33    1
    13     6     7    1
    14     6    12    1
    15     6     8    1
    16     8     9    1
    17     8    34    1
    18     8    35    1
    19     9    10    1
    20     9    36    1
    21     9    37    1
    22    10    11    1
    23    10    38    1
    24    10    39    1
    25    11    12    1
    26    11    40    1
    27    11    41    1
    28    12    13    1
    29    12    14    1
    30    14    15   am
    31    14    42    1
    32    15    16    2
    33    15    17    1
    34    17    22   ar
    35    17    18   ar
    36    18    19   ar
    37    18    43    1
    38    19    20   ar
    39    20    21   ar
    40    20    44    1
    41    21    22   ar
    42    22    45    1
    43    23    24   ar
    44    24    25    1
    45    24    28   ar
    46    25    27    1
    47    25    26    1
    48    25    46    1
    49    26    27    1
    50    26    47    1
    51    26    48    1
    52    27    49    1
    53    27    50    1
@<TRIPOS>SUBSTRUCTURE
     1 ZINC001045438664        1 TEMP              0 ****  ****    0 ROOT


##########                                Name:    ZINC000518937710
##########                DOCK_Rotatable_Bonds:                   6
##########                         Heavy_Atoms:                  25
##########                    Molecular_Weight:             397.421
##########                DOCK_Rotatable_Bonds:                   6
##########                       Formal_Charge:          -0.0199997
##########                     HBond_Acceptors:                  11
##########                        HBond_Donors:                   0
##########                         Heavy_Atoms:                  25
##########                          Grid_Score:          -30.113075
##########                     Grid_vdw_energy:          -29.617260
##########                      Grid_es_energy:           -0.495815
##########           Internal_energy_repulsive:           21.320038

@<TRIPOS>MOLECULE
ZINC000518937710
 42 44 1 0 0
SMALL
USER_CHARGES


@<TRIPOS>ATOM
      1 C1        -13.7054   -5.1176   55.0178 C.3     1  ZINC000518937710   -0.1900
      2 C2        -12.9795   -3.8145   55.3579 C.3     1  ZINC000518937710    0.1700
      3 H3        -11.9782   -4.0412   55.7239 H       1  ZINC000518937710    0.1100
      4 C4        -12.8792   -2.9442   54.1035 C.3     1  ZINC000518937710   -0.6600
      5 S5        -11.3731   -3.3739   53.1883 S.o2    1  ZINC000518937710    2.4000
      6 C6        -11.2925   -2.0462   51.9549 C.3     1  ZINC000518937710   -0.6600
      7 O7        -10.2603   -3.2476   54.0629 O.2     1  ZINC000518937710   -0.9200
      8 O8        -11.5891   -4.6059   52.5138 O.2     1  ZINC000518937710   -0.9300
      9 N9        -13.7264   -3.0951   56.3928 N.am    1  ZINC000518937710   -0.9600
     10 C10       -14.6260   -2.0007   56.0198 C.3     1  ZINC000518937710    0.0800
     11 C11       -15.7972   -2.3335   55.0933 C.3     1  ZINC000518937710   -0.1800
     12 C12       -16.0519   -2.0386   56.5729 C.3     1  ZINC000518937710   -0.1800
     13 S13       -13.5536   -3.5189   57.9843 S.o2    1  ZINC000518937710    2.6900
     14 O14       -14.2751   -2.5537   58.7373 O.2     1  ZINC000518937710   -0.9400
     15 O15       -13.8123   -4.9142   58.0583 O.2     1  ZINC000518937710   -0.9400
     16 C16       -11.8545   -3.3053   58.3994 C.ar    1  ZINC000518937710   -0.6400
     17 C17       -10.9677   -4.3540   58.2418 C.ar    1  ZINC000518937710   -0.0300
     18 C18        -9.6339   -4.1900   58.5665 C.ar    1  ZINC000518937710   -0.1300
     19 C19        -9.1812   -2.9765   59.0495 C.ar    1  ZINC000518937710   -0.0300
     20 C20       -10.0643   -1.9211   59.2100 C.ar    1  ZINC000518937710    0.0200
     21 C21       -11.4069   -2.0847   58.8782 C.ar    1  ZINC000518937710    0.1900
     22 O22       -12.0629   -0.9131   59.1237 O.3     1  ZINC000518937710   -0.2800
     23 C23       -11.1941   -0.1606   59.9910 C.3     1  ZINC000518937710    0.5700
     24 F24       -11.2938    1.2081   59.7192 F       1  ZINC000518937710   -0.1200
     25 F25       -11.4964   -0.4172   61.3326 F       1  ZINC000518937710   -0.1400
     26 O26        -9.8782   -0.6456   59.6592 O.3     1  ZINC000518937710   -0.2900
     27 H27       -14.7193   -4.8930   54.6865 H       1  ZINC000518937710    0.1000
     28 H28       -13.1694   -5.6351   54.2223 H       1  ZINC000518937710    0.0800
     29 H29       -13.7447   -5.7531   55.9025 H       1  ZINC000518937710    0.0700
     30 H30       -13.7501   -3.1165   53.4712 H       1  ZINC000518937710    0.1600
     31 H31       -12.8418   -1.8938   54.3920 H       1  ZINC000518937710    0.1400
     32 H32       -11.1374   -1.0918   52.4581 H       1  ZINC000518937710    0.1300
     33 H33       -10.4647   -2.2352   51.2713 H       1  ZINC000518937710    0.1300
     34 H34       -12.2266   -2.0139   51.3942 H       1  ZINC000518937710    0.1300
     35 H35       -14.1560   -1.0237   55.9063 H       1  ZINC000518937710    0.1500
     36 H36       -16.0979   -1.5755   54.3700 H       1  ZINC000518937710    0.1100
     37 H37       -15.8984   -3.3668   54.7614 H       1  ZINC000518937710    0.1000
     38 H38       -16.3208   -2.8779   57.2144 H       1  ZINC000518937710    0.1000
     39 H39       -16.5203   -1.0866   56.8230 H       1  ZINC000518937710    0.1000
     40 H40       -11.3177   -5.3036   57.8647 H       1  ZINC000518937710    0.1600
     41 H41        -8.9442   -5.0118   58.4427 H       1  ZINC000518937710    0.1600
     42 H42        -8.1386   -2.8512   59.3023 H       1  ZINC000518937710    0.1500
@<TRIPOS>BOND
     1     1     2    1
     2     1    27    1
     3     1    28    1
     4     1    29    1
     5     2     3    1
     6     2     4    1
     7     2     9    1
     8     4     5    1
     9     4    30    1
    10     4    31    1
    11     5     6    1
    12     5     7    2
    13     5     8    2
    14     6    32    1
    15     6    33    1
    16     6    34    1
    17     9    10    1
    18     9    13   am
    19    10    12    1
    20    10    11    1
    21    10    35    1
    22    11    12    1
    23    11    36    1
    24    11    37    1
    25    12    38    1
    26    12    39    1
    27    13    14    2
    28    13    15    2
    29    13    16    1
    30    16    21   ar
    31    16    17   ar
    32    17    18   ar
    33    17    40    1
    34    18    19   ar
    35    18    41    1
    36    19    20   ar
    37    19    42    1
    38    20    26    1
    39    20    21   ar
    40    21    22    1
    41    22    23    1
    42    23    24    1
    43    23    25    1
    44    23    26    1
@<TRIPOS>SUBSTRUCTURE
     1 ZINC000518937710        1 TEMP              0 ****  ****    0 ROOT


##########                                Name:    ZINC000012087388
##########                DOCK_Rotatable_Bonds:                   5
##########                         Heavy_Atoms:                  29
##########                    Molecular_Weight:              418.52
##########                DOCK_Rotatable_Bonds:                   5
##########                       Formal_Charge:          -0.0499999
##########                     HBond_Acceptors:                  10
##########                        HBond_Donors:                   1
##########                         Heavy_Atoms:                  29
##########                          Grid_Score:          -30.106829
##########                     Grid_vdw_energy:          -31.188366
##########                      Grid_es_energy:            1.081537
##########           Internal_energy_repulsive:           35.465908

@<TRIPOS>MOLECULE
ZINC000012087388
 55 58 1 0 0
SMALL
USER_CHARGES


@<TRIPOS>ATOM
      1 C1        -14.6790   -3.7413   58.0382 C.3     1  <0>        -0.6600
      2 S2        -13.6671   -4.6199   56.8157 S.o2    1  <0>         2.5100
      3 O3        -12.5790   -5.2782   57.4495 O.2     1  <0>        -0.9400
      4 O4        -14.4933   -5.3025   55.8826 O.2     1  <0>        -0.9300
      5 C5        -12.9098   -3.3401   55.8706 C.ar    1  <0>        -0.8400
      6 C6        -13.1706   -3.2116   54.5156 C.ar    1  <0>         0.3000
      7 N7        -12.5859   -2.2395   53.8351 N.ar    1  <0>        -0.5800
      8 C8        -11.7598   -1.3951   54.4348 C.ar    1  <0>         0.6000
      9 N9        -11.1653   -0.3896   53.6925 N.pl3   1  <0>        -0.5700
     10 C10       -11.2122    1.0060   54.1495 C.3     1  <0>         0.1200
     11 C11        -9.7842    1.5589   54.1930 C.3     1  <0>        -0.1400
     12 C12        -9.1254    1.3674   52.8251 C.3     1  <0>        -0.1200
     13 C13        -9.0555   -0.1254   52.4952 C.3     1  <0>        -0.1400
     14 C14       -10.4700   -0.6982   52.4355 C.3     1  <0>         0.1200
     15 N15       -11.4895   -1.4901   55.7285 N.ar    1  <0>        -0.5700
     16 C16       -12.0445   -2.4363   56.4675 C.ar    1  <0>         0.3200
     17 C17       -11.7317   -2.5372   57.9381 C.3     1  <0>        -0.0700
     18 C18       -10.2154   -2.6070   58.1333 C.3     1  <0>        -0.1300
     19 C19        -9.9026   -2.7443   59.6266 C.3     1  <0>         0.0900
     20 N20       -10.5540   -1.6436   60.3495 N.am    1  <0>        -0.6100
     21 C21        -9.8427   -0.8440   61.1688 C.2     1  <0>         0.5900
     22 O22        -8.6498   -1.0305   61.3155 O.2     1  <0>        -0.5100
     23 C23       -10.5094    0.2545   61.8860 C.2     1  <0>        -0.0400
     24 C24       -10.2214    1.6048   61.7899 C.2     1  <0>        -0.1500
     25 C25       -11.1175    2.2367   62.6552 C.2     1  <0>         0.0000
     26 N26       -11.8633    1.3128   63.2054 N.2     1  <0>        -0.2700
     27 N27       -11.5403    0.1463   62.7757 N.pl3   1  <0>        -0.3900
     28 C28       -11.9957   -1.4307   60.1620 C.3     1  <0>         0.1100
     29 C29       -12.2850   -1.3080   58.6627 C.3     1  <0>        -0.1200
     30 H30       -14.0388   -3.1071   58.6515 H       1  <0>         0.1400
     31 H31       -15.4162   -3.1246   57.5241 H       1  <0>         0.1300
     32 H32       -15.1902   -4.4645   58.6739 H       1  <0>         0.1400
     33 H33       -13.8429   -3.8972   54.0211 H       1  <0>         0.1900
     34 H34       -11.8120    1.5972   53.4575 H       1  <0>         0.0700
     35 H35       -11.6515    1.0495   55.1461 H       1  <0>         0.1000
     36 H36        -9.8125    2.6207   54.4378 H       1  <0>         0.0800
     37 H37        -9.2105    1.0255   54.9511 H       1  <0>         0.0700
     38 H38        -9.7132    1.8804   52.0639 H       1  <0>         0.0700
     39 H39        -8.1176    1.7822   52.8461 H       1  <0>         0.0700
     40 H40        -8.5652   -0.2625   51.5314 H       1  <0>         0.0800
     41 H41        -8.4887   -0.6429   53.2692 H       1  <0>         0.0700
     42 H42       -10.4212   -1.7786   52.2991 H       1  <0>         0.1000
     43 H43       -11.0122   -0.2470   51.6045 H       1  <0>         0.0700
     44 H44       -12.1919   -3.4371   58.3464 H       1  <0>         0.1000
     45 H45        -9.8189   -3.4696   57.5977 H       1  <0>         0.0800
     46 H46        -9.7567   -1.6964   57.7478 H       1  <0>         0.0900
     47 H47       -10.2827   -3.6978   59.9933 H       1  <0>         0.0800
     48 H48        -8.8246   -2.6950   59.7802 H       1  <0>         0.0900
     49 H49        -9.4647    2.0708   61.1763 H       1  <0>         0.1700
     50 H50       -11.1830    3.2991   62.8380 H       1  <0>         0.1900
     51 H51       -11.9597   -0.6853   63.0467 H       1  <0>         0.4400
     52 H52       -12.5464   -2.2770   60.5724 H       1  <0>         0.0800
     53 H53       -12.2987   -0.5145   60.6688 H       1  <0>         0.1000
     54 H54       -11.8069   -0.4097   58.2722 H       1  <0>         0.0800
     55 H55       -13.3616   -1.2460   58.5038 H       1  <0>         0.0900
@<TRIPOS>BOND
     1     1     2    1
     2     1    30    1
     3     1    31    1
     4     1    32    1
     5     2     3    2
     6     2     4    2
     7     2     5    1
     8     5    16   ar
     9     5     6   ar
    10     6     7   ar
    11     6    33    1
    12     7     8   ar
    13     8     9    1
    14     8    15   ar
    15     9    14    1
    16     9    10    1
    17    10    11    1
    18    10    34    1
    19    10    35    1
    20    11    12    1
    21    11    36    1
    22    11    37    1
    23    12    13    1
    24    12    38    1
    25    12    39    1
    26    13    14    1
    27    13    40    1
    28    13    41    1
    29    14    42    1
    30    14    43    1
    31    15    16   ar
    32    16    17    1
    33    17    29    1
    34    17    18    1
    35    17    44    1
    36    18    19    1
    37    18    45    1
    38    18    46    1
    39    19    20    1
    40    19    47    1
    41    19    48    1
    42    20    21   am
    43    20    28    1
    44    21    22    2
    45    21    23    1
    46    23    27    1
    47    23    24    2
    48    24    25    1
    49    24    49    1
    50    25    26    2
    51    25    50    1
    52    26    27    1
    53    27    51    1
    54    28    29    1
    55    28    52    1
    56    28    53    1
    57    29    54    1
    58    29    55    1
@<TRIPOS>SUBSTRUCTURE
     1 <0>         1 TEMP              0 ****  ****    0 ROOT


##########                                Name:    ZINC001162683355
##########                DOCK_Rotatable_Bonds:                   5
##########                         Heavy_Atoms:                  25
##########                    Molecular_Weight:             336.437
##########                DOCK_Rotatable_Bonds:                   5
##########                       Formal_Charge:          -0.0100002
##########                     HBond_Acceptors:                   5
##########                        HBond_Donors:                   1
##########                         Heavy_Atoms:                  25
##########                          Grid_Score:          -30.067520
##########                     Grid_vdw_energy:          -29.673662
##########                      Grid_es_energy:           -0.393858
##########           Internal_energy_repulsive:           11.749575

@<TRIPOS>MOLECULE
ZINC001162683355
 49 52 1 0 0
SMALL
USER_CHARGES


@<TRIPOS>ATOM
      1 C1        -16.9027   -2.2332   55.4937 C.3     1  ZINC001162683355    0.0200
      2 N2        -16.9702   -1.9295   56.9294 N.3     1  ZINC001162683355   -0.5400
      3 C3        -17.1574   -0.4889   57.1550 C.3     1  ZINC001162683355    0.0100
      4 C4        -17.2820   -0.2252   58.6580 C.3     1  ZINC001162683355    0.0600
      5 O5        -16.1217   -0.7311   59.3235 O.3     1  ZINC001162683355   -0.3800
      6 C6        -15.9092   -2.1315   59.1256 C.3     1  ZINC001162683355    0.0800
      7 H7        -16.7570   -2.6883   59.5250 H       1  ZINC001162683355    0.0700
      8 C8        -14.6303   -2.5612   59.8472 C.3     1  ZINC001162683355    0.1500
      9 N9        -13.4639   -2.0990   59.0908 N.pl3   1  ZINC001162683355   -0.7300
     10 C10       -12.1883   -2.2376   59.6266 C.ar    1  ZINC001162683355    0.4300
     11 C11       -11.2825   -3.1301   59.0484 C.ar    1  ZINC001162683355   -0.0100
     12 C12       -10.0002   -3.2453   59.6155 C.ar    1  ZINC001162683355   -0.0400
     13 C13        -9.6859   -2.4616   60.7339 C.ar    1  ZINC001162683355   -0.1800
     14 C14       -10.6335   -1.6158   61.2327 C.ar    1  ZINC001162683355    0.1000
     15 N15       -11.8346   -1.5237   60.6825 N.ar    1  ZINC001162683355   -0.5400
     16 C16        -9.2887   -4.2351   58.8124 C.2     1  ZINC001162683355   -0.2200
     17 C17       -10.1385   -4.6480   57.8551 C.2     1  ZINC001162683355    0.0800
     18 N18       -11.3313   -3.9943   57.9785 N.pl3   1  ZINC001162683355   -0.4600
     19 C19       -12.4918   -4.1886   57.1057 C.3     1  ZINC001162683355    0.1500
     20 C20       -12.1797   -3.6589   55.7297 C.ar    1  ZINC001162683355   -0.1100
     21 C21       -11.7060   -2.3693   55.5767 C.ar    1  ZINC001162683355   -0.1000
     22 C22       -11.4156   -1.8850   54.3149 C.ar    1  ZINC001162683355   -0.1200
     23 C23       -11.6077   -2.6871   53.2056 C.ar    1  ZINC001162683355   -0.1100
     24 C24       -12.0863   -3.9749   53.3582 C.ar    1  ZINC001162683355   -0.1200
     25 C25       -12.3725   -4.4607   54.6204 C.ar    1  ZINC001162683355   -0.1000
     26 C26       -15.7707   -2.4146   57.6274 C.3     1  ZINC001162683355    0.0300
     27 H27       -16.0238   -1.7543   55.0620 H       1  ZINC001162683355    0.0300
     28 H28       -16.8346   -3.3119   55.3533 H       1  ZINC001162683355    0.0700
     29 H29       -17.7997   -1.8585   55.0005 H       1  ZINC001162683355    0.0700
     30 H30       -18.0647   -0.1564   56.6507 H       1  ZINC001162683355    0.0900
     31 H31       -16.3000    0.0558   56.7598 H       1  ZINC001162683355    0.0500
     32 H32       -18.1701   -0.7264   59.0430 H       1  ZINC001162683355    0.0600
     33 H33       -17.3641    0.8474   58.8343 H       1  ZINC001162683355    0.1000
     34 H34       -14.6051   -3.6481   59.9255 H       1  ZINC001162683355    0.0700
     35 H35       -14.6123   -2.1245   60.8457 H       1  ZINC001162683355    0.0800
     36 H36       -13.5816   -1.6961   58.2163 H       1  ZINC001162683355    0.4000
     37 H37        -8.7105   -2.5256   61.1931 H       1  ZINC001162683355    0.1300
     38 H38       -10.3988   -1.0082   62.0941 H       1  ZINC001162683355    0.1500
     39 H39        -8.2744   -4.5747   58.9614 H       1  ZINC001162683355    0.1500
     40 H40        -9.9107   -5.3854   57.0995 H       1  ZINC001162683355    0.1700
     41 H41       -13.3483   -3.6532   57.5155 H       1  ZINC001162683355    0.0900
     42 H42       -12.7243   -5.2516   57.0417 H       1  ZINC001162683355    0.0900
     43 H43       -11.5596   -1.7413   56.4430 H       1  ZINC001162683355    0.1200
     44 H44       -11.0413   -0.8790   54.1956 H       1  ZINC001162683355    0.1300
     45 H45       -11.3832   -2.3077   52.2196 H       1  ZINC001162683355    0.1300
     46 H46       -12.2363   -4.6015   52.4915 H       1  ZINC001162683355    0.1300
     47 H47       -12.7466   -5.4668   54.7397 H       1  ZINC001162683355    0.1200
     48 H48       -14.8911   -1.9006   57.2397 H       1  ZINC001162683355    0.0500
     49 H49       -15.6658   -3.4877   57.4679 H       1  ZINC001162683355    0.0900
@<TRIPOS>BOND
     1     1     2    1
     2     1    27    1
     3     1    28    1
     4     1    29    1
     5     2    26    1
     6     2     3    1
     7     3     4    1
     8     3    30    1
     9     3    31    1
    10     4     5    1
    11     4    32    1
    12     4    33    1
    13     5     6    1
    14     6     7    1
    15     6     8    1
    16     6    26    1
    17     8     9    1
    18     8    34    1
    19     8    35    1
    20     9    10    1
    21     9    36    1
    22    10    15   ar
    23    10    11   ar
    24    11    18    1
    25    11    12   ar
    26    12    13   ar
    27    12    16    1
    28    13    14   ar
    29    13    37    1
    30    14    15   ar
    31    14    38    1
    32    16    17    2
    33    16    39    1
    34    17    18    1
    35    17    40    1
    36    18    19    1
    37    19    20    1
    38    19    41    1
    39    19    42    1
    40    20    25   ar
    41    20    21   ar
    42    21    22   ar
    43    21    43    1
    44    22    23   ar
    45    22    44    1
    46    23    24   ar
    47    23    45    1
    48    24    25   ar
    49    24    46    1
    50    25    47    1
    51    26    48    1
    52    26    49    1
@<TRIPOS>SUBSTRUCTURE
     1 ZINC001162683355        1 TEMP              0 ****  ****    0 ROOT


##########                                Name:    ZINC001176298561
##########                DOCK_Rotatable_Bonds:                   6
##########                         Heavy_Atoms:                  23
##########                    Molecular_Weight:             337.781
##########                DOCK_Rotatable_Bonds:                   6
##########                       Formal_Charge:          -0.0100003
##########                     HBond_Acceptors:                   7
##########                        HBond_Donors:                   2
##########                         Heavy_Atoms:                  23
##########                          Grid_Score:          -30.046932
##########                     Grid_vdw_energy:          -28.759117
##########                      Grid_es_energy:           -1.287816
##########           Internal_energy_repulsive:           12.510109

@<TRIPOS>MOLECULE
ZINC001176298561
 40 41 1 0 0
SMALL
USER_CHARGES


@<TRIPOS>ATOM
      1 C1         -9.2850   -0.2477   52.8242 C.3     1  ZINC001176298561   -0.1700
      2 C2        -10.7892   -0.4422   52.6231 C.3     1  ZINC001176298561    0.1100
      3 N3        -11.3147   -1.3107   53.6793 N.am    1  ZINC001176298561   -0.6100
      4 C4        -11.8270   -0.7262   54.9211 C.3     1  ZINC001176298561    0.0900
      5 C5        -12.5213    0.6016   54.6114 C.3     1  ZINC001176298561   -0.1800
      6 C6        -11.3271   -2.6475   53.5085 C.2     1  ZINC001176298561    0.5600
      7 O7        -10.9022   -3.1326   52.4782 O.2     1  ZINC001176298561   -0.5300
      8 C8        -11.8575   -3.5243   54.5747 C.ar    1  ZINC001176298561   -0.0600
      9 C9        -13.0732   -4.1860   54.3962 C.ar    1  ZINC001176298561   -0.1900
     10 C10       -13.5672   -5.0052   55.3947 C.ar    1  ZINC001176298561    0.1400
     11 F11       -14.7440   -5.6455   55.2202 F       1  ZINC001176298561   -0.1300
     12 C12       -12.8589   -5.1715   56.5721 C.ar    1  ZINC001176298561   -0.1800
     13 C13       -11.6472   -4.5159   56.7576 C.ar    1  ZINC001176298561    0.2400
     14 N14       -10.9357   -4.6871   57.9473 N.pl3   1  ZINC001176298561   -0.6700
     15 C15       -10.6988   -3.5907   58.7852 C.2     1  ZINC001176298561    0.0400
     16 C16       -11.7274   -2.7685   59.1567 C.2     1  ZINC001176298561   -0.0300
     17 C17       -11.4628   -1.6771   59.9976 C.2     1  ZINC001176298561   -0.1300
     18 Cl18      -12.7534   -0.6214   60.4812 Cl      1  ZINC001176298561   -0.0400
     19 C19       -10.2020   -1.4471   60.4322 C.2     1  ZINC001176298561    0.1400
     20 N20        -9.1780   -2.2640   60.0634 N.am    1  ZINC001176298561   -0.6000
     21 C21        -9.3964   -3.3237   59.2615 C.2     1  ZINC001176298561    0.5100
     22 O22        -8.4678   -4.0477   58.9395 O.2     1  ZINC001176298561   -0.5200
     23 C23       -11.1416   -3.6968   55.7591 C.ar    1  ZINC001176298561   -0.1300
     24 H24        -8.8940    0.3986   52.0383 H       1  ZINC001176298561    0.0700
     25 H25        -9.1049    0.2122   53.7959 H       1  ZINC001176298561    0.0600
     26 H26        -8.7846   -1.2151   52.7816 H       1  ZINC001176298561    0.0600
     27 H27       -11.2896    0.5252   52.6657 H       1  ZINC001176298561    0.0800
     28 H28       -10.9694   -0.9020   51.6513 H       1  ZINC001176298561    0.0900
     29 H29       -12.5408   -1.4116   55.3780 H       1  ZINC001176298561    0.0900
     30 H30       -10.9995   -0.5518   55.6090 H       1  ZINC001176298561    0.0800
     31 H31       -13.0909    0.5068   53.6870 H       1  ZINC001176298561    0.0700
     32 H32       -13.1952    0.8585   55.4288 H       1  ZINC001176298561    0.0700
     33 H33       -11.7724    1.3854   54.4981 H       1  ZINC001176298561    0.0600
     34 H34       -13.6283   -4.0579   53.4787 H       1  ZINC001176298561    0.1500
     35 H35       -13.2490   -5.8122   57.3492 H       1  ZINC001176298561    0.1300
     36 H36       -10.6057   -5.5655   58.1930 H       1  ZINC001176298561    0.4200
     37 H37       -12.7314   -2.9574   58.8066 H       1  ZINC001176298561    0.1500
     38 H38       -10.0061   -0.6049   61.0793 H       1  ZINC001176298561    0.1800
     39 H39        -8.2808   -2.0829   60.3848 H       1  ZINC001176298561    0.4300
     40 H40       -10.2003   -3.1869   55.9019 H       1  ZINC001176298561    0.1400
@<TRIPOS>BOND
     1     1     2    1
     2     1    24    1
     3     1    25    1
     4     1    26    1
     5     2     3    1
     6     2    27    1
     7     2    28    1
     8     3     4    1
     9     3     6   am
    10     4     5    1
    11     4    29    1
    12     4    30    1
    13     5    31    1
    14     5    32    1
    15     5    33    1
    16     6     7    2
    17     6     8    1
    18     8    23   ar
    19     8     9   ar
    20     9    10   ar
    21     9    34    1
    22    10    11    1
    23    10    12   ar
    24    12    13   ar
    25    12    35    1
    26    13    14    1
    27    13    23   ar
    28    14    15    1
    29    14    36    1
    30    15    21    1
    31    15    16    2
    32    16    17    1
    33    16    37    1
    34    17    18    1
    35    17    19    2
    36    19    20    1
    37    19    38    1
    38    20    21   am
    39    20    39    1
    40    21    22    2
    41    23    40    1
@<TRIPOS>SUBSTRUCTURE
     1 ZINC001176298561        1 TEMP              0 ****  ****    0 ROOT


##########                                Name:    ZINC000053543817
##########                DOCK_Rotatable_Bonds:                   7
##########                         Heavy_Atoms:                  25
##########                    Molecular_Weight:             350.458
##########                DOCK_Rotatable_Bonds:                   7
##########                       Formal_Charge:           0.0199998
##########                     HBond_Acceptors:                   6
##########                        HBond_Donors:                   2
##########                         Heavy_Atoms:                  25
##########                          Grid_Score:          -30.043846
##########                     Grid_vdw_energy:          -28.602024
##########                      Grid_es_energy:           -1.441822
##########           Internal_energy_repulsive:           34.255859

@<TRIPOS>MOLECULE
ZINC000053543817
 55 56 1 0 0
SMALL
USER_CHARGES


@<TRIPOS>ATOM
      1 C1         -7.0748    0.6383   66.6163 C.3     1  ZINC000053543817   -0.0700
      2 C2         -8.1800    1.0029   65.6588 C.2     1  ZINC000053543817   -0.0200
      3 C3         -8.7442    0.1765   64.7559 C.2     1  ZINC000053543817   -0.1800
      4 C4         -9.7246    0.9262   64.0813 C.2     1  ZINC000053543817   -0.1900
      5 C5         -9.7080    2.1681   64.6075 C.2     1  ZINC000053543817    0.0000
      6 C6        -10.6173    3.2853   64.1570 C.3     1  ZINC000053543817   -0.0300
      7 C7        -11.7778    2.6752   63.3620 C.3     1  ZINC000053543817   -0.0500
      8 C8        -12.6929    1.8983   64.3108 C.3     1  ZINC000053543817   -0.1500
      9 C9        -12.5752    3.7923   62.6856 C.3     1  ZINC000053543817   -0.1400
     10 C10       -11.2248    1.7258   62.2954 C.3     1  ZINC000053543817   -0.1200
     11 C11       -10.6436    0.4791   62.9746 C.3     1  ZINC000053543817    0.2200
     12 H12       -11.4518   -0.1235   63.3890 H       1  ZINC000053543817    0.1000
     13 N13        -9.8913   -0.3103   61.9964 N.am    1  ZINC000053543817   -0.7100
     14 C14       -10.5460   -1.0832   61.1073 C.2     1  ZINC000053543817    0.5100
     15 O15       -11.7579   -1.1263   61.1181 O.2     1  ZINC000053543817   -0.5300
     16 C16        -9.7720   -1.8938   60.0999 C.3     1  ZINC000053543817    0.1400
     17 H17       -10.4477   -2.2460   59.3205 H       1  ZINC000053543817    0.1200
     18 C18        -9.1281   -3.0938   60.7972 C.3     1  ZINC000053543817   -0.1600
     19 N19        -8.7278   -1.0593   59.5003 N.am    1  ZINC000053543817   -0.7000
     20 C20        -9.0501   -0.1472   58.5618 C.2     1  ZINC000053543817    0.6600
     21 O21       -10.2066   -0.0181   58.2119 O.2     1  ZINC000053543817   -0.5700
     22 O22        -8.0907    0.6208   58.0120 O.3     1  ZINC000053543817   -0.3600
     23 C23        -8.5092    1.5756   57.0012 C.3     1  ZINC000053543817    0.1400
     24 C24        -9.5192    2.5513   57.6084 C.3     1  ZINC000053543817   -0.1800
     25 C25        -7.2907    2.3510   56.4965 C.3     1  ZINC000053543817   -0.1400
     26 C26        -9.1588    0.8302   55.8335 C.3     1  ZINC000053543817   -0.1800
     27 O27        -8.7738    2.2062   65.5651 O.3     1  ZINC000053543817   -0.1700
     28 H28        -6.8244    1.5045   67.2288 H       1  ZINC000053543817    0.0800
     29 H29        -7.4053   -0.1777   67.2589 H       1  ZINC000053543817    0.0800
     30 H30        -6.1955    0.3247   66.0538 H       1  ZINC000053543817    0.0800
     31 H31        -8.4922   -0.8594   64.5837 H       1  ZINC000053543817    0.1400
     32 H32       -11.0070    3.8139   65.0270 H       1  ZINC000053543817    0.0900
     33 H33       -10.0620    3.9764   63.5229 H       1  ZINC000053543817    0.0900
     34 H34       -13.0876    2.5743   65.0693 H       1  ZINC000053543817    0.0600
     35 H35       -13.5179    1.4646   63.7458 H       1  ZINC000053543817    0.0600
     36 H36       -12.1249    1.1029   64.7931 H       1  ZINC000053543817    0.0600
     37 H37       -11.9233    4.3461   62.0100 H       1  ZINC000053543817    0.0600
     38 H38       -13.4002    3.3588   62.1204 H       1  ZINC000053543817    0.0600
     39 H39       -12.9700    4.4676   63.4447 H       1  ZINC000053543817    0.0600
     40 H40       -12.0277    1.4308   61.6199 H       1  ZINC000053543817    0.0800
     41 H41       -10.4414    2.2308   61.7304 H       1  ZINC000053543817    0.0700
     42 H42        -8.9219   -0.2766   61.9885 H       1  ZINC000053543817    0.4000
     43 H43        -9.9050   -3.7146   61.2434 H       1  ZINC000053543817    0.0800
     44 H44        -8.5682   -3.6801   60.0686 H       1  ZINC000053543817    0.0800
     45 H45        -8.4523   -2.7415   61.5765 H       1  ZINC000053543817    0.0700
     46 H46        -7.8044   -1.1631   59.7787 H       1  ZINC000053543817    0.4200
     47 H47        -9.0564    3.0824   58.4402 H       1  ZINC000053543817    0.0600
     48 H48        -9.8334    3.2681   56.8496 H       1  ZINC000053543817    0.0700
     49 H49       -10.3873    1.9988   57.9679 H       1  ZINC000053543817    0.0900
     50 H50        -6.5713    1.6559   56.0639 H       1  ZINC000053543817    0.0700
     51 H51        -7.6050    3.0678   55.7378 H       1  ZINC000053543817    0.0800
     52 H52        -6.8280    2.8821   57.3284 H       1  ZINC000053543817    0.0700
     53 H53       -10.0269    0.2777   56.1931 H       1  ZINC000053543817    0.0900
     54 H54        -9.4730    1.5469   55.0747 H       1  ZINC000053543817    0.0700
     55 H55        -8.4393    0.1350   55.4010 H       1  ZINC000053543817    0.0600
@<TRIPOS>BOND
     1     1     2    1
     2     1    28    1
     3     1    29    1
     4     1    30    1
     5     2    27    1
     6     2     3    2
     7     3     4    1
     8     3    31    1
     9     4    11    1
    10     4     5    2
    11     5     6    1
    12     5    27    1
    13     6     7    1
    14     6    32    1
    15     6    33    1
    16     7     8    1
    17     7     9    1
    18     7    10    1
    19     8    34    1
    20     8    35    1
    21     8    36    1
    22     9    37    1
    23     9    38    1
    24     9    39    1
    25    10    11    1
    26    10    40    1
    27    10    41    1
    28    11    12    1
    29    11    13    1
    30    13    14   am
    31    13    42    1
    32    14    15    2
    33    14    16    1
    34    16    17    1
    35    16    18    1
    36    16    19    1
    37    18    43    1
    38    18    44    1
    39    18    45    1
    40    19    20   am
    41    19    46    1
    42    20    21    2
    43    20    22    1
    44    22    23    1
    45    23    24    1
    46    23    25    1
    47    23    26    1
    48    24    47    1
    49    24    48    1
    50    24    49    1
    51    25    50    1
    52    25    51    1
    53    25    52    1
    54    26    53    1
    55    26    54    1
    56    26    55    1
@<TRIPOS>SUBSTRUCTURE
     1 ZINC000053543817        1 TEMP              0 ****  ****    0 ROOT


##########                                Name:    ZINC000632456679
##########                DOCK_Rotatable_Bonds:                   6
##########                         Heavy_Atoms:                  24
##########                    Molecular_Weight:              374.82
##########                DOCK_Rotatable_Bonds:                   6
##########                       Formal_Charge:          -0.0299999
##########                     HBond_Acceptors:                   9
##########                        HBond_Donors:                   1
##########                         Heavy_Atoms:                  24
##########                          Grid_Score:          -30.033617
##########                     Grid_vdw_energy:          -29.641876
##########                      Grid_es_energy:           -0.391741
##########           Internal_energy_repulsive:           33.729969

@<TRIPOS>MOLECULE
ZINC000632456679
 40 41 1 0 0
SMALL
USER_CHARGES


@<TRIPOS>ATOM
      1 C1        -14.2245   -3.2688   56.5383 C.3     1  ZINC000632456679   -0.1600
      2 C2        -12.8053   -3.7221   56.8867 C.3     1  ZINC000632456679    0.1900
      3 C3        -12.7877   -5.2396   57.0807 C.3     1  ZINC000632456679   -0.2000
      4 C4        -11.8550   -3.3423   55.7493 C.3     1  ZINC000632456679   -0.6300
      5 S5        -12.7119   -3.5212   54.1605 S.o2    1  ZINC000632456679    2.4100
      6 C6        -11.3438   -3.3744   52.9783 C.3     1  ZINC000632456679   -0.6600
      7 O7        -13.2424   -4.8369   54.0778 O.2     1  ZINC000632456679   -0.9300
      8 O8        -13.5811   -2.4105   53.9872 O.2     1  ZINC000632456679   -0.9300
      9 N9        -12.3731   -3.0667   58.1235 N.am    1  ZINC000632456679   -0.7200
     10 C10       -11.1083   -3.2222   58.5623 C.2     1  ZINC000632456679    0.6200
     11 O11       -10.3265   -3.9079   57.9324 O.2     1  ZINC000632456679   -0.5000
     12 C12       -10.6727   -2.5607   59.8069 C.2     1  ZINC000632456679   -0.0900
     13 C13       -11.2836   -1.5120   60.4341 C.2     1  ZINC000632456679   -0.1300
     14 C14       -10.4632   -1.2721   61.5707 C.2     1  ZINC000632456679    0.0400
     15 C15       -10.6653   -0.2328   62.6106 C.ar    1  ZINC000632456679   -0.0500
     16 C16        -9.5816    0.5051   63.0815 C.ar    1  ZINC000632456679   -0.0600
     17 C17        -9.7744    1.4706   64.0489 C.ar    1  ZINC000632456679   -0.1100
     18 C18       -11.0406    1.7075   64.5526 C.ar    1  ZINC000632456679   -0.0700
     19 C19       -12.1224    0.9790   64.0903 C.ar    1  ZINC000632456679   -0.0800
     20 Cl20      -13.7083    1.2826   64.7279 Cl      1  ZINC000632456679   -0.0400
     21 C21       -11.9424    0.0128   63.1163 C.ar    1  ZINC000632456679    0.1400
     22 F22       -12.9983   -0.6986   62.6644 F       1  ZINC000632456679   -0.1100
     23 N23        -9.4945   -2.1515   61.5171 N.2     1  ZINC000632456679   -0.3200
     24 O24        -9.5972   -2.8745   60.5539 O.3     1  ZINC000632456679    0.1400
     25 H25       -14.9015   -3.5394   57.3485 H       1  ZINC000632456679    0.0900
     26 H26       -14.2369   -2.1877   56.4001 H       1  ZINC000632456679    0.0600
     27 H27       -14.5460   -3.7565   55.6180 H       1  ZINC000632456679    0.0700
     28 H28       -13.1093   -5.7273   56.1604 H       1  ZINC000632456679    0.0800
     29 H29       -11.7766   -5.5626   57.3287 H       1  ZINC000632456679    0.0800
     30 H30       -13.4648   -5.5102   57.8909 H       1  ZINC000632456679    0.0900
     31 H31       -11.5336   -2.3084   55.8743 H       1  ZINC000632456679    0.1600
     32 H32       -10.9847   -3.9982   55.7685 H       1  ZINC000632456679    0.1400
     33 H33       -10.6170   -4.1653   53.1637 H       1  ZINC000632456679    0.1300
     34 H34       -11.7296   -3.4661   51.9629 H       1  ZINC000632456679    0.1300
     35 H35       -10.8628   -2.4036   53.0978 H       1  ZINC000632456679    0.1300
     36 H36       -12.9973   -2.5206   58.6267 H       1  ZINC000632456679    0.4200
     37 H37       -12.1795   -0.9875   60.1360 H       1  ZINC000632456679    0.1900
     38 H38        -8.5918    0.3217   62.6904 H       1  ZINC000632456679    0.1500
     39 H39        -8.9340    2.0426   64.4137 H       1  ZINC000632456679    0.1500
     40 H40       -11.1853    2.4637   65.3099 H       1  ZINC000632456679    0.1500
@<TRIPOS>BOND
     1     1     2    1
     2     1    25    1
     3     1    26    1
     4     1    27    1
     5     2     3    1
     6     2     4    1
     7     2     9    1
     8     3    28    1
     9     3    29    1
    10     3    30    1
    11     4     5    1
    12     4    31    1
    13     4    32    1
    14     5     6    1
    15     5     7    2
    16     5     8    2
    17     6    33    1
    18     6    34    1
    19     6    35    1
    20     9    10   am
    21     9    36    1
    22    10    11    2
    23    10    12    1
    24    12    24    1
    25    12    13    2
    26    13    14    1
    27    13    37    1
    28    14    15    1
    29    14    23    2
    30    15    21   ar
    31    15    16   ar
    32    16    17   ar
    33    16    38    1
    34    17    18   ar
    35    17    39    1
    36    18    19   ar
    37    18    40    1
    38    19    20    1
    39    19    21   ar
    40    21    22    1
    41    23    24    1
@<TRIPOS>SUBSTRUCTURE
     1 ZINC000632456679        1 TEMP              0 ****  ****    0 ROOT


##########                                Name:    ZINC000444542200
##########                DOCK_Rotatable_Bonds:                   8
##########                         Heavy_Atoms:                  28
##########                    Molecular_Weight:             404.337
##########                DOCK_Rotatable_Bonds:                   8
##########                       Formal_Charge:           0.0200001
##########                     HBond_Acceptors:                  10
##########                        HBond_Donors:                   1
##########                         Heavy_Atoms:                  28
##########                          Grid_Score:          -29.980297
##########                     Grid_vdw_energy:          -29.588694
##########                      Grid_es_energy:           -0.391604
##########           Internal_energy_repulsive:           23.650152

@<TRIPOS>MOLECULE
ZINC000444542200
 45 46 1 0 0
SMALL
USER_CHARGES


@<TRIPOS>ATOM
      1 C1        -10.7736    3.4115   54.2401 C.3     1  ZINC000444542200    0.0300
      2 O2        -11.4583    2.1576   54.2753 O.3     1  ZINC000444542200   -0.3100
      3 C3        -10.7965    1.0792   53.7793 C.ar    1  ZINC000444542200    0.1800
      4 C4        -11.3931   -0.1721   53.8050 C.ar    1  ZINC000444542200   -0.1700
      5 C5        -10.7172   -1.2734   53.2979 C.ar    1  ZINC000444542200    0.2300
      6 N6        -11.3191   -2.5365   53.3231 N.am    1  ZINC000444542200   -0.5800
      7 C7        -11.7080   -3.1876   52.0697 C.3     1  ZINC000444542200    0.0700
      8 C8        -11.5408   -3.1539   54.5003 C.2     1  ZINC000444542200    0.7100
      9 O9        -12.0639   -4.2514   54.5222 O.2     1  ZINC000444542200   -0.5500
     10 N10       -11.1829   -2.5549   55.6534 N.am    1  ZINC000444542200   -0.7300
     11 C11       -11.4224   -3.2269   56.9330 C.3     1  ZINC000444542200    0.1700
     12 H12       -11.2627   -4.2987   56.8160 H       1  ZINC000444542200    0.1500
     13 C13       -10.4707   -2.6873   57.9695 C.ar    1  ZINC000444542200   -0.1300
     14 C14        -9.7468   -3.5575   58.7626 C.ar    1  ZINC000444542200   -0.0800
     15 C15        -8.8734   -3.0641   59.7140 C.ar    1  ZINC000444542200   -0.0900
     16 C16        -8.7221   -1.6996   59.8739 C.ar    1  ZINC000444542200   -0.1100
     17 C17        -9.4456   -0.8255   59.0812 C.ar    1  ZINC000444542200    0.0800
     18 F18        -9.2983    0.5084   59.2369 F       1  ZINC000444542200   -0.1200
     19 C19       -10.3173   -1.3203   58.1233 C.ar    1  ZINC000444542200    0.1000
     20 F20       -11.0245   -0.4691   57.3483 F       1  ZINC000444542200   -0.1100
     21 C21       -12.8629   -2.9717   57.3812 C.3     1  ZINC000444542200    0.4400
     22 F22       -13.6518   -4.0847   57.0714 F       1  ZINC000444542200   -0.1600
     23 F23       -12.8893   -2.7514   58.7626 F       1  ZINC000444542200   -0.1700
     24 F24       -13.3647   -1.8458   56.7197 F       1  ZINC000444542200   -0.1800
     25 C25        -9.4444   -1.1211   52.7655 C.ar    1  ZINC000444542200   -0.1900
     26 C26        -8.8490    0.1307   52.7406 C.ar    1  ZINC000444542200    0.1800
     27 O27        -7.6028    0.2800   52.2193 O.3     1  ZINC000444542200   -0.3100
     28 C28        -6.9883   -0.8843   51.6637 C.3     1  ZINC000444542200    0.0300
     29 C29        -9.5269    1.2316   53.2425 C.ar    1  ZINC000444542200   -0.2900
     30 H30        -9.8540    3.3397   54.8208 H       1  ZINC000444542200    0.0600
     31 H31       -10.5327    3.6650   53.2077 H       1  ZINC000444542200    0.0600
     32 H32       -11.4120    4.1861   54.6650 H       1  ZINC000444542200    0.1000
     33 H33       -12.3834   -0.2898   54.2196 H       1  ZINC000444542200    0.1300
     34 H34       -10.8786   -3.7914   51.7013 H       1  ZINC000444542200    0.0700
     35 H35       -12.5729   -3.8272   52.2457 H       1  ZINC000444542200    0.0700
     36 H36       -11.9619   -2.4288   51.3296 H       1  ZINC000444542200    0.0900
     37 H37       -10.7668   -1.6788   55.6361 H       1  ZINC000444542200    0.4100
     38 H38        -9.8639   -4.6240   58.6394 H       1  ZINC000444542200    0.1400
     39 H39        -8.3089   -3.7456   60.3330 H       1  ZINC000444542200    0.1500
     40 H40        -8.0398   -1.3153   60.6177 H       1  ZINC000444542200    0.1500
     41 H41        -8.9179   -1.9777   52.3712 H       1  ZINC000444542200    0.1400
     42 H42        -7.6031   -1.2657   50.8484 H       1  ZINC000444542200    0.0600
     43 H43        -5.9996   -0.6270   51.2836 H       1  ZINC000444542200    0.1000
     44 H44        -6.8934   -1.6484   52.4353 H       1  ZINC000444542200    0.0600
     45 H45        -9.0626    2.2065   53.2228 H       1  ZINC000444542200    0.1400
@<TRIPOS>BOND
     1     1     2    1
     2     1    30    1
     3     1    31    1
     4     1    32    1
     5     2     3    1
     6     3    29   ar
     7     3     4   ar
     8     4     5   ar
     9     4    33    1
    10     5     6    1
    11     5    25   ar
    12     6     7    1
    13     6     8   am
    14     7    34    1
    15     7    35    1
    16     7    36    1
    17     8     9    2
    18     8    10   am
    19    10    11    1
    20    10    37    1
    21    11    12    1
    22    11    13    1
    23    11    21    1
    24    13    19   ar
    25    13    14   ar
    26    14    15   ar
    27    14    38    1
    28    15    16   ar
    29    15    39    1
    30    16    17   ar
    31    16    40    1
    32    17    18    1
    33    17    19   ar
    34    19    20    1
    35    21    22    1
    36    21    23    1
    37    21    24    1
    38    25    26   ar
    39    25    41    1
    40    26    27    1
    41    26    29   ar
    42    27    28    1
    43    28    42    1
    44    28    43    1
    45    28    44    1
    46    29    45    1
@<TRIPOS>SUBSTRUCTURE
     1 ZINC000444542200        1 TEMP              0 ****  ****    0 ROOT


##########                                Name:    ZINC000560467340
##########                DOCK_Rotatable_Bonds:                   7
##########                         Heavy_Atoms:                  24
##########                    Molecular_Weight:             369.481
##########                DOCK_Rotatable_Bonds:                   7
##########                       Formal_Charge:          -0.0199997
##########                     HBond_Acceptors:                   7
##########                        HBond_Donors:                   2
##########                         Heavy_Atoms:                  24
##########                          Grid_Score:          -29.968529
##########                     Grid_vdw_energy:          -29.092670
##########                      Grid_es_energy:           -0.875859
##########           Internal_energy_repulsive:           26.675207

@<TRIPOS>MOLECULE
ZINC000560467340
 44 46 1 0 0
SMALL
USER_CHARGES


@<TRIPOS>ATOM
      1 O1        -16.5996   -2.3252   59.1354 O.2     1  ZINC000560467340   -0.9600
      2 S2        -15.2889   -2.8483   59.3014 S.o2    1  ZINC000560467340    2.7100
      3 O3        -15.0227   -4.0916   59.9358 O.2     1  ZINC000560467340   -0.9500
      4 N4        -14.6289   -2.9458   57.7857 N.am    1  ZINC000560467340   -1.0900
      5 C5        -13.2215   -3.3181   57.6221 C.3     1  ZINC000560467340    0.1400
      6 C6        -12.7856   -3.0442   56.1813 C.3     1  ZINC000560467340   -0.0500
      7 C7        -11.2713   -3.2186   56.0502 C.3     1  ZINC000560467340   -0.0700
      8 C8        -10.6333   -3.1092   57.4112 C.ar    1  ZINC000560467340   -0.0900
      9 C9        -10.3520   -4.2522   58.1360 C.ar    1  ZINC000560467340   -0.0900
     10 C10        -9.7670   -4.1531   59.3841 C.ar    1  ZINC000560467340   -0.1500
     11 C11        -9.4622   -2.9083   59.9084 C.ar    1  ZINC000560467340    0.1000
     12 F12        -8.8899   -2.8103   61.1282 F       1  ZINC000560467340   -0.1400
     13 C13        -9.7440   -1.7642   59.1812 C.ar    1  ZINC000560467340   -0.1500
     14 C14       -10.3247   -1.8660   57.9312 C.ar    1  ZINC000560467340   -0.0900
     15 C15       -13.1916   -1.6141   55.7692 C.3     1  ZINC000560467340   -0.1300
     16 C16       -13.6092   -1.7510   54.2839 C.3     1  ZINC000560467340   -0.1200
     17 C17       -14.3334   -3.1198   54.2572 C.3     1  ZINC000560467340   -0.1600
     18 C18       -13.5117   -4.0015   55.2201 C.3     1  ZINC000560467340    0.1100
     19 H19       -12.7851   -4.5897   54.6594 H       1  ZINC000560467340    0.0600
     20 O20       -14.3806   -4.8672   55.9533 O.3     1  ZINC000560467340   -0.5500
     21 C21       -14.3764   -1.6308   60.1901 C.2     1  ZINC000560467340   -0.6900
     22 C22       -13.8689   -0.5452   59.6044 C.2     1  ZINC000560467340   -0.1000
     23 S23       -13.0288    0.4326   60.8009 S.3     1  ZINC000560467340    0.1500
     24 C24       -13.4258   -0.7221   62.0669 C.2     1  ZINC000560467340   -0.2200
     25 C25       -14.1368   -1.7255   61.5502 C.2     1  ZINC000560467340   -0.0700
     26 H26       -15.1742   -2.7565   57.0062 H       1  ZINC000560467340    0.4200
     27 H27       -12.6084   -2.7302   58.3052 H       1  ZINC000560467340    0.0600
     28 H28       -13.0979   -4.3781   57.8439 H       1  ZINC000560467340    0.0800
     29 H29       -11.0538   -4.1983   55.6247 H       1  ZINC000560467340    0.0800
     30 H30       -10.8713   -2.4422   55.3980 H       1  ZINC000560467340    0.0800
     31 H31       -10.5899   -5.2230   57.7269 H       1  ZINC000560467340    0.1300
     32 H32        -9.5480   -5.0462   59.9506 H       1  ZINC000560467340    0.1400
     33 H33        -9.5070   -0.7927   59.5893 H       1  ZINC000560467340    0.1400
     34 H34       -10.5443   -0.9737   57.3637 H       1  ZINC000560467340    0.1300
     35 H35       -14.0316   -1.2676   56.3712 H       1  ZINC000560467340    0.0700
     36 H36       -12.3452   -0.9343   55.8664 H       1  ZINC000560467340    0.0800
     37 H37       -14.2892   -0.9484   53.9983 H       1  ZINC000560467340    0.0700
     38 H38       -12.7328   -1.7650   53.6360 H       1  ZINC000560467340    0.0700
     39 H39       -15.3578   -3.0164   54.6151 H       1  ZINC000560467340    0.0800
     40 H40       -14.3203   -3.5388   53.2510 H       1  ZINC000560467340    0.0700
     41 H41       -14.7880   -5.5614   55.4174 H       1  ZINC000560467340    0.3800
     42 H42       -13.9597   -0.3037   58.5556 H       1  ZINC000560467340    0.1800
     43 H43       -13.1413   -0.6304   63.1047 H       1  ZINC000560467340    0.1700
     44 H44       -14.4919   -2.5531   62.1463 H       1  ZINC000560467340    0.1500
@<TRIPOS>BOND
     1     1     2    2
     2     2     3    2
     3     2     4   am
     4     2    21    1
     5     4     5    1
     6     4    26    1
     7     5     6    1
     8     5    27    1
     9     5    28    1
    10     6    18    1
    11     6     7    1
    12     6    15    1
    13     7     8    1
    14     7    29    1
    15     7    30    1
    16     8    14   ar
    17     8     9   ar
    18     9    10   ar
    19     9    31    1
    20    10    11   ar
    21    10    32    1
    22    11    12    1
    23    11    13   ar
    24    13    14   ar
    25    13    33    1
    26    14    34    1
    27    15    16    1
    28    15    35    1
    29    15    36    1
    30    16    17    1
    31    16    37    1
    32    16    38    1
    33    17    18    1
    34    17    39    1
    35    17    40    1
    36    18    19    1
    37    18    20    1
    38    20    41    1
    39    21    25    1
    40    21    22    2
    41    22    23    1
    42    22    42    1
    43    23    24    1
    44    24    25    2
    45    24    43    1
    46    25    44    1
@<TRIPOS>SUBSTRUCTURE
     1 ZINC000560467340        1 TEMP              0 ****  ****    0 ROOT


##########                                Name:    ZINC000437443367
##########                DOCK_Rotatable_Bonds:                   8
##########                         Heavy_Atoms:                  24
##########                    Molecular_Weight:             334.434
##########                DOCK_Rotatable_Bonds:                   8
##########                       Formal_Charge:          -0.0500003
##########                     HBond_Acceptors:                   5
##########                        HBond_Donors:                   1
##########                         Heavy_Atoms:                  24
##########                          Grid_Score:          -29.912918
##########                     Grid_vdw_energy:          -30.214018
##########                      Grid_es_energy:            0.301101
##########           Internal_energy_repulsive:           31.803789

@<TRIPOS>MOLECULE
ZINC000437443367
 51 52 1 0 0
SMALL
USER_CHARGES


@<TRIPOS>ATOM
      1 C1         -8.6840    0.3945   64.4644 C.3     1  ZINC000437443367   -0.1200
      2 C2         -9.5259    0.4883   63.2180 C.ar    1  ZINC000437443367   -0.1000
      3 C3         -9.4157   -0.4768   62.2369 C.ar    1  ZINC000437443367   -0.1200
      4 C4        -10.1921   -0.3898   61.0880 C.ar    1  ZINC000437443367    0.1400
      5 N5        -10.0825   -1.3662   60.0933 N.am    1  ZINC000437443367   -0.6400
      6 C6        -10.9345   -2.4104   60.0772 C.2     1  ZINC000437443367    0.5000
      7 O7        -11.7970   -2.5032   60.9262 O.2     1  ZINC000437443367   -0.4800
      8 C8        -10.8174   -3.4533   59.0146 C.2     1  ZINC000437443367    0.5100
      9 O9         -9.9868   -4.3323   59.1160 O.2     1  ZINC000437443367   -0.5200
     10 N10       -11.6342   -3.4183   57.9431 N.am    1  ZINC000437443367   -0.5700
     11 C11       -12.6369   -2.3573   57.8208 C.3     1  ZINC000437443367    0.0900
     12 C12       -13.8716   -2.7247   58.6464 C.3     1  ZINC000437443367   -0.1200
     13 C13       -14.8662   -1.5623   58.6215 C.3     1  ZINC000437443367   -0.0900
     14 C14       -16.1529   -1.9766   59.3382 C.3     1  ZINC000437443367   -0.1400
     15 C15       -14.2543   -0.3524   59.3305 C.3     1  ZINC000437443367   -0.1500
     16 C16       -11.5193   -4.4413   56.9008 C.3     1  ZINC000437443367    0.1300
     17 C17       -12.7867   -5.3208   56.8817 C.3     1  ZINC000437443367   -0.1300
     18 C18       -13.6731   -4.6857   55.7816 C.3     1  ZINC000437443367   -0.1300
     19 C19       -12.6388   -4.2736   54.7048 C.3     1  ZINC000437443367   -0.1200
     20 C20       -11.4253   -3.7755   55.5168 C.3     1  ZINC000437443367   -0.1400
     21 C21       -11.0777    0.6683   60.9293 C.ar    1  ZINC000437443367   -0.1100
     22 C22       -11.1846    1.6314   61.9134 C.ar    1  ZINC000437443367   -0.1300
     23 C23       -10.4139    1.5396   63.0602 C.ar    1  ZINC000437443367    0.0800
     24 F24       -10.5200    2.4828   64.0215 F       1  ZINC000437443367   -0.1400
     25 H25        -9.2173   -0.1816   65.2206 H       1  ZINC000437443367    0.0800
     26 H26        -7.7411   -0.0992   64.2295 H       1  ZINC000437443367    0.0700
     27 H27        -8.4848    1.3964   64.8445 H       1  ZINC000437443367    0.0700
     28 H28        -8.7262   -1.2985   62.3621 H       1  ZINC000437443367    0.1400
     29 H29        -9.3934   -1.2920   59.4147 H       1  ZINC000437443367    0.4200
     30 H30       -12.2202   -1.4195   58.1880 H       1  ZINC000437443367    0.0900
     31 H31       -12.9202   -2.2440   56.7743 H       1  ZINC000437443367    0.1000
     32 H32       -14.3404   -3.6131   58.2234 H       1  ZINC000437443367    0.0700
     33 H33       -13.5738   -2.9260   59.6754 H       1  ZINC000437443367    0.0600
     34 H34       -15.0939   -1.3011   57.5880 H       1  ZINC000437443367    0.0600
     35 H35       -15.9251   -2.2378   60.3715 H       1  ZINC000437443367    0.0600
     36 H36       -16.8614   -1.1485   59.3204 H       1  ZINC000437443367    0.0400
     37 H37       -16.5887   -2.8386   58.8330 H       1  ZINC000437443367    0.0600
     38 H38       -13.3377   -0.0573   58.8199 H       1  ZINC000437443367    0.0500
     39 H39       -14.9629    0.4757   59.3127 H       1  ZINC000437443367    0.0500
     40 H40       -14.0267   -0.6136   60.3638 H       1  ZINC000437443367    0.0500
     41 H41       -10.6385   -5.0583   57.0790 H       1  ZINC000437443367    0.1000
     42 H42       -12.5339   -6.3486   56.6215 H       1  ZINC000437443367    0.0800
     43 H43       -13.2914   -5.2836   57.8470 H       1  ZINC000437443367    0.0700
     44 H44       -14.3761   -5.4166   55.3822 H       1  ZINC000437443367    0.0700
     45 H45       -14.1993   -3.8120   56.1662 H       1  ZINC000437443367    0.0700
     46 H46       -12.3620   -5.1323   54.0932 H       1  ZINC000437443367    0.0700
     47 H47       -13.0357   -3.4722   54.0816 H       1  ZINC000437443367    0.0700
     48 H48       -11.4652   -2.6912   55.6206 H       1  ZINC000437443367    0.0800
     49 H49       -10.4993   -4.0700   55.0229 H       1  ZINC000437443367    0.0700
     50 H50       -11.6820    0.7381   60.0370 H       1  ZINC000437443367    0.1600
     51 H51       -11.8732    2.4544   61.7905 H       1  ZINC000437443367    0.1400
@<TRIPOS>BOND
     1     1     2    1
     2     1    25    1
     3     1    26    1
     4     1    27    1
     5     2    23   ar
     6     2     3   ar
     7     3     4   ar
     8     3    28    1
     9     4     5    1
    10     4    21   ar
    11     5     6   am
    12     5    29    1
    13     6     7    2
    14     6     8    1
    15     8     9    2
    16     8    10   am
    17    10    11    1
    18    10    16    1
    19    11    12    1
    20    11    30    1
    21    11    31    1
    22    12    13    1
    23    12    32    1
    24    12    33    1
    25    13    14    1
    26    13    15    1
    27    13    34    1
    28    14    35    1
    29    14    36    1
    30    14    37    1
    31    15    38    1
    32    15    39    1
    33    15    40    1
    34    16    20    1
    35    16    17    1
    36    16    41    1
    37    17    18    1
    38    17    42    1
    39    17    43    1
    40    18    19    1
    41    18    44    1
    42    18    45    1
    43    19    20    1
    44    19    46    1
    45    19    47    1
    46    20    48    1
    47    20    49    1
    48    21    22   ar
    49    21    50    1
    50    22    23   ar
    51    22    51    1
    52    23    24    1
@<TRIPOS>SUBSTRUCTURE
     1 ZINC000437443367        1 TEMP              0 ****  ****    0 ROOT


##########                                Name:    ZINC000331626032
##########                DOCK_Rotatable_Bonds:                   5
##########                         Heavy_Atoms:                  25
##########                    Molecular_Weight:              339.44
##########                DOCK_Rotatable_Bonds:                   5
##########                       Formal_Charge:        -2.16067e-07
##########                     HBond_Acceptors:                   6
##########                        HBond_Donors:                   2
##########                         Heavy_Atoms:                  25
##########                          Grid_Score:          -29.886982
##########                     Grid_vdw_energy:          -28.230597
##########                      Grid_es_energy:           -1.656386
##########           Internal_energy_repulsive:           28.123035

@<TRIPOS>MOLECULE
ZINC000331626032
 50 52 1 0 0
SMALL
USER_CHARGES


@<TRIPOS>ATOM
      1 C1        -10.3282    1.8486   59.2638 C.3     1  ZINC000331626032   -0.2000
      2 C2        -10.1282    0.8435   60.4000 C.3     1  ZINC000331626032    0.0700
      3 H3         -9.2516    1.1247   60.9836 H       1  ZINC000331626032    0.1100
      4 C4        -11.3446    0.8423   61.2896 C.2     1  ZINC000331626032    0.5200
      5 O5        -12.4540    0.8648   60.7998 O.2     1  ZINC000331626032   -0.5000
      6 N6        -11.1998    0.8163   62.6292 N.am    1  ZINC000331626032   -0.5800
      7 C7         -9.8599    0.7891   63.2207 C.3     1  ZINC000331626032    0.0800
      8 C8        -12.3293    0.8152   63.4551 C.ar    1  ZINC000331626032    0.1400
      9 C9        -13.2610   -0.2102   63.3584 C.ar    1  ZINC000331626032   -0.1000
     10 C10       -14.3748   -0.2084   64.1751 C.ar    1  ZINC000331626032   -0.1100
     11 C11       -14.5631    0.8131   65.0879 C.ar    1  ZINC000331626032   -0.1200
     12 C12       -13.6375    1.8357   65.1863 C.ar    1  ZINC000331626032   -0.1100
     13 C13       -12.5182    1.8362   64.3773 C.ar    1  ZINC000331626032   -0.1200
     14 N14        -9.9318   -0.4991   59.8372 N.3     1  ZINC000331626032   -0.5100
     15 C15        -9.1834   -1.3550   60.7665 C.3     1  ZINC000331626032    0.0500
     16 C16        -8.8718   -2.6927   60.0917 C.3     1  ZINC000331626032   -0.1100
     17 C17       -10.1829   -3.3719   59.6864 C.3     1  ZINC000331626032   -0.1100
     18 C18       -10.9655   -2.4397   58.7574 C.3     1  ZINC000331626032   -0.0400
     19 H19       -10.3889   -2.2628   57.8494 H       1  ZINC000331626032    0.1000
     20 C20       -12.2839   -3.0762   58.4000 C.ar    1  ZINC000331626032    0.2300
     21 C21       -12.3358   -4.1146   57.4837 C.ar    1  ZINC000331626032   -0.2900
     22 C22       -13.5689   -4.6721   57.1830 C.ar    1  ZINC000331626032    0.1900
     23 N23       -14.6526   -4.1993   57.7758 N.ar    1  ZINC000331626032   -0.5700
     24 C24       -14.5684   -3.2050   58.6476 C.ar    1  ZINC000331626032    0.5700
     25 N25       -15.7227   -2.7349   59.2497 N.pl3   1  ZINC000331626032   -0.8200
     26 N26       -13.4051   -2.6540   58.9610 N.ar    1  ZINC000331626032   -0.5700
     27 C27       -11.2163   -1.1093   59.4708 C.3     1  ZINC000331626032    0.0700
     28 H28       -11.2048    1.5674   58.6802 H       1  ZINC000331626032    0.0700
     29 H29       -10.4740    2.8448   59.6814 H       1  ZINC000331626032    0.0800
     30 H30        -9.4483    1.8494   58.6204 H       1  ZINC000331626032    0.0700
     31 H31        -9.5149    1.8099   63.3861 H       1  ZINC000331626032    0.0600
     32 H32        -9.8933    0.2583   64.1722 H       1  ZINC000331626032    0.0800
     33 H33        -9.1742    0.2791   62.5440 H       1  ZINC000331626032    0.0800
     34 H34       -13.1149   -1.0079   62.6452 H       1  ZINC000331626032    0.1200
     35 H35       -15.0998   -1.0054   64.1003 H       1  ZINC000331626032    0.1300
     36 H36       -15.4351    0.8124   65.7252 H       1  ZINC000331626032    0.1300
     37 H37       -13.7877    2.6325   65.8998 H       1  ZINC000331626032    0.1300
     38 H38       -11.7956    2.6352   64.4545 H       1  ZINC000331626032    0.1200
     39 H39        -8.2513   -0.8623   61.0435 H       1  ZINC000331626032    0.0900
     40 H40        -9.7813   -1.5299   61.6609 H       1  ZINC000331626032    0.0300
     41 H41        -8.2623   -2.5198   59.2048 H       1  ZINC000331626032    0.0800
     42 H42        -8.3298   -3.3337   60.7872 H       1  ZINC000331626032    0.0700
     43 H43        -9.9645   -4.3048   59.1667 H       1  ZINC000331626032    0.0700
     44 H44       -10.7758   -3.5802   60.5771 H       1  ZINC000331626032    0.0700
     45 H45       -11.4351   -4.4814   57.0139 H       1  ZINC000331626032    0.1400
     46 H46       -13.6438   -5.4824   56.4730 H       1  ZINC000331626032    0.1700
     47 H47       -16.5799   -3.1329   59.0319 H       1  ZINC000331626032    0.4100
     48 H48       -15.6742   -2.0076   59.8896 H       1  ZINC000331626032    0.4100
     49 H49       -11.8048   -1.2853   60.3713 H       1  ZINC000331626032    0.0400
     50 H50       -11.7609   -0.4380   58.8067 H       1  ZINC000331626032    0.0800
@<TRIPOS>BOND
     1     1     2    1
     2     1    28    1
     3     1    29    1
     4     1    30    1
     5     2     3    1
     6     2     4    1
     7     2    14    1
     8     4     5    2
     9     4     6   am
    10     6     7    1
    11     6     8    1
    12     7    31    1
    13     7    32    1
    14     7    33    1
    15     8    13   ar
    16     8     9   ar
    17     9    10   ar
    18     9    34    1
    19    10    11   ar
    20    10    35    1
    21    11    12   ar
    22    11    36    1
    23    12    13   ar
    24    12    37    1
    25    13    38    1
    26    14    27    1
    27    14    15    1
    28    15    16    1
    29    15    39    1
    30    15    40    1
    31    16    17    1
    32    16    41    1
    33    16    42    1
    34    17    18    1
    35    17    43    1
    36    17    44    1
    37    18    19    1
    38    18    20    1
    39    18    27    1
    40    20    26   ar
    41    20    21   ar
    42    21    22   ar
    43    21    45    1
    44    22    23   ar
    45    22    46    1
    46    23    24   ar
    47    24    25    1
    48    24    26   ar
    49    25    47    1
    50    25    48    1
    51    27    49    1
    52    27    50    1
@<TRIPOS>SUBSTRUCTURE
     1 ZINC000331626032        1 TEMP              0 ****  ****    0 ROOT


##########                                Name:    ZINC000840649129
##########                DOCK_Rotatable_Bonds:                   8
##########                         Heavy_Atoms:                  26
##########                    Molecular_Weight:             376.839
##########                DOCK_Rotatable_Bonds:                   8
##########                       Formal_Charge:          -0.0199998
##########                     HBond_Acceptors:                   7
##########                        HBond_Donors:                   3
##########                         Heavy_Atoms:                  26
##########                          Grid_Score:          -29.874567
##########                     Grid_vdw_energy:          -30.278624
##########                      Grid_es_energy:            0.404057
##########           Internal_energy_repulsive:           11.871646

@<TRIPOS>MOLECULE
ZINC000840649129
 47 48 1 0 0
SMALL
USER_CHARGES


@<TRIPOS>ATOM
      1 C1         -8.7636   -3.3504   59.4930 C.3     1  ZINC000840649129    0.0200
      2 O2         -8.4097   -1.9665   59.4554 O.3     1  ZINC000840649129   -0.2900
      3 C3         -9.2702   -1.0943   60.0396 C.ar    1  ZINC000840649129    0.1400
      4 C4         -9.8733   -1.4159   61.2459 C.ar    1  ZINC000840649129   -0.1700
      5 C5        -10.7487   -0.5304   61.8417 C.ar    1  ZINC000840649129   -0.1200
      6 C6        -11.0325    0.6902   61.2382 C.ar    1  ZINC000840649129    0.1700
      7 N7        -11.9213    1.5816   61.8499 N.pl3   1  ZINC000840649129   -0.8800
      8 C8        -10.4373    1.0257   60.0343 C.ar    1  ZINC000840649129   -0.1000
      9 C9         -9.5469    0.1361   59.4276 C.ar    1  ZINC000840649129   -0.1200
     10 C10        -8.9085    0.4859   58.1458 C.2     1  ZINC000840649129    0.5100
     11 O11        -8.1652    1.4449   58.0790 O.2     1  ZINC000840649129   -0.4800
     12 O12        -9.1491   -0.2579   57.0483 O.3     1  ZINC000840649129   -0.3200
     13 C13       -10.2560    0.1531   56.2031 C.3     1  ZINC000840649129    0.0800
     14 H14       -10.6835    1.0786   56.5888 H       1  ZINC000840649129    0.1200
     15 C15       -11.3105   -0.9234   56.1978 C.2     1  ZINC000840649129    0.5200
     16 O16       -12.4646   -0.6407   55.9546 O.2     1  ZINC000840649129   -0.4900
     17 N17       -10.9711   -2.2004   56.4631 N.am    1  ZINC000840649129   -0.6600
     18 C18       -11.9505   -3.2005   56.4582 C.ar    1  ZINC000840649129    0.1600
     19 C19       -12.6801   -3.4652   57.6091 C.ar    1  ZINC000840649129   -0.1400
     20 C20       -13.6465   -4.4526   57.6011 C.ar    1  ZINC000840649129   -0.0900
     21 C21       -13.8877   -5.1772   56.4487 C.ar    1  ZINC000840649129   -0.1300
     22 C22       -13.1626   -4.9169   55.3000 C.ar    1  ZINC000840649129   -0.0900
     23 C23       -12.1987   -3.9269   55.2994 C.ar    1  ZINC000840649129   -0.0700
     24 Cl24      -11.2892   -3.6000   53.8572 Cl      1  ZINC000840649129   -0.0700
     25 C25        -9.7516    0.3799   54.7765 C.3     1  ZINC000840649129   -0.1100
     26 C26       -10.7765    1.2079   53.9988 C.3     1  ZINC000840649129   -0.1600
     27 C27        -8.4182    1.1292   54.8201 C.3     1  ZINC000840649129   -0.1500
     28 H28        -7.9927   -3.9364   58.9923 H       1  ZINC000840649129    0.1000
     29 H29        -8.8508   -3.6752   60.5298 H       1  ZINC000840649129    0.0600
     30 H30        -9.7173   -3.4955   58.9853 H       1  ZINC000840649129    0.0600
     31 H31        -9.6579   -2.3619   61.7204 H       1  ZINC000840649129    0.1400
     32 H32       -11.2159   -0.7868   62.7811 H       1  ZINC000840649129    0.1300
     33 H33       -12.3388    1.3479   62.6938 H       1  ZINC000840649129    0.4000
     34 H34       -12.1200    2.4331   61.4300 H       1  ZINC000840649129    0.4000
     35 H35       -10.6581    1.9739   59.5668 H       1  ZINC000840649129    0.1400
     36 H36       -10.0481   -2.4266   56.6575 H       1  ZINC000840649129    0.4200
     37 H37       -12.4923   -2.9001   58.5100 H       1  ZINC000840649129    0.1700
     38 H38       -14.2140   -4.6589   58.4965 H       1  ZINC000840649129    0.1300
     39 H39       -14.6438   -5.9484   56.4455 H       1  ZINC000840649129    0.1300
     40 H40       -13.3532   -5.4849   54.4014 H       1  ZINC000840649129    0.1400
     41 H41        -9.6119   -0.5819   54.2833 H       1  ZINC000840649129    0.0900
     42 H42       -11.0110    2.1139   54.5576 H       1  ZINC000840649129    0.0700
     43 H43       -10.3637    1.4772   53.0267 H       1  ZINC000840649129    0.0800
     44 H44       -11.6851    0.6224   53.8582 H       1  ZINC000840649129    0.0600
     45 H45        -7.6880    0.5393   55.3742 H       1  ZINC000840649129    0.0500
     46 H46        -8.0589    1.2908   53.8039 H       1  ZINC000840649129    0.0600
     47 H47        -8.5579    2.0911   55.3135 H       1  ZINC000840649129    0.0700
@<TRIPOS>BOND
     1     1     2    1
     2     1    28    1
     3     1    29    1
     4     1    30    1
     5     2     3    1
     6     3     9   ar
     7     3     4   ar
     8     4     5   ar
     9     4    31    1
    10     5     6   ar
    11     5    32    1
    12     6     7    1
    13     6     8   ar
    14     7    33    1
    15     7    34    1
    16     8     9   ar
    17     8    35    1
    18     9    10    1
    19    10    11    2
    20    10    12    1
    21    12    13    1
    22    13    14    1
    23    13    15    1
    24    13    25    1
    25    15    16    2
    26    15    17   am
    27    17    18    1
    28    17    36    1
    29    18    23   ar
    30    18    19   ar
    31    19    20   ar
    32    19    37    1
    33    20    21   ar
    34    20    38    1
    35    21    22   ar
    36    21    39    1
    37    22    23   ar
    38    22    40    1
    39    23    24    1
    40    25    26    1
    41    25    27    1
    42    25    41    1
    43    26    42    1
    44    26    43    1
    45    26    44    1
    46    27    45    1
    47    27    46    1
    48    27    47    1
@<TRIPOS>SUBSTRUCTURE
     1 ZINC000840649129        1 TEMP              0 ****  ****    0 ROOT


##########                                Name:    ZINC000435292384
##########                DOCK_Rotatable_Bonds:                   6
##########                         Heavy_Atoms:                  22
##########                    Molecular_Weight:             326.503
##########                DOCK_Rotatable_Bonds:                   6
##########                       Formal_Charge:         -0.00999993
##########                     HBond_Acceptors:                   5
##########                        HBond_Donors:                   0
##########                         Heavy_Atoms:                  22
##########                          Grid_Score:          -29.857290
##########                     Grid_vdw_energy:          -29.464691
##########                      Grid_es_energy:           -0.392600
##########           Internal_energy_repulsive:           21.670315

@<TRIPOS>MOLECULE
ZINC000435292384
 52 53 1 0 0
SMALL
USER_CHARGES


@<TRIPOS>ATOM
      1 C1        -10.3229    0.4390   63.0345 C.3     1  ZINC000435292384   -0.1500
      2 C2         -9.1504   -0.2992   62.3854 C.3     1  ZINC000435292384   -0.1200
      3 C3         -9.4197   -0.4679   60.8888 C.3     1  ZINC000435292384   -0.1400
      4 C4        -10.3913   -1.6300   60.6732 C.3     1  ZINC000435292384    0.1600
      5 H5        -11.1221   -1.6472   61.4818 H       1  ZINC000435292384    0.0900
      6 C6         -9.6148   -2.9482   60.6596 C.3     1  ZINC000435292384   -0.1700
      7 N7        -11.0829   -1.4574   59.3933 N.am    1  ZINC000435292384   -0.6100
      8 C8        -10.5210   -1.8349   58.0910 C.3     1  ZINC000435292384    0.1200
      9 C9        -11.7234   -1.8848   57.1224 C.3     1  ZINC000435292384   -0.1300
     10 H10       -12.1374   -2.8916   57.0662 H       1  ZINC000435292384    0.1100
     11 C11       -11.3346   -1.3874   55.7540 C.2     1  ZINC000435292384    0.5200
     12 O12       -10.3280   -0.7258   55.6128 O.2     1  ZINC000435292384   -0.5200
     13 N13       -12.1055   -1.6777   54.6873 N.am    1  ZINC000435292384   -0.6000
     14 C14       -11.6964   -1.1753   53.3610 C.3     1  ZINC000435292384    0.1000
     15 C15       -11.8799   -2.2334   52.2579 C.3     1  ZINC000435292384   -0.1300
     16 C16       -11.4588   -3.5903   52.7659 C.3     1  ZINC000435292384   -0.1100
     17 C17       -12.6703   -4.3090   53.3521 C.3     1  ZINC000435292384   -0.1200
     18 C18       -12.9538   -3.9725   54.7557 C.3     1  ZINC000435292384   -0.0700
     19 H19       -12.0781   -4.1973   55.3646 H       1  ZINC000435292384    0.0900
     20 S20       -14.3594   -4.9605   55.3378 S.3     1  ZINC000435292384   -0.2500
     21 C21       -13.6871   -5.8084   56.7937 C.3     1  ZINC000435292384   -0.1200
     22 C22       -13.2958   -2.4733   54.8885 C.3     1  ZINC000435292384    0.1400
     23 C23       -12.7171   -0.9151   57.8029 C.3     1  ZINC000435292384   -0.1400
     24 C24       -12.3156   -0.9381   59.2613 C.2     1  ZINC000435292384    0.5200
     25 O25       -13.0031   -0.5393   60.1774 O.2     1  ZINC000435292384   -0.5200
     26 H26       -10.1311    0.5593   64.1007 H       1  ZINC000435292384    0.0500
     27 H27       -10.4350    1.4200   62.5727 H       1  ZINC000435292384    0.0500
     28 H28       -11.2378   -0.1362   62.8925 H       1  ZINC000435292384    0.0500
     29 H29        -8.2355    0.2760   62.5274 H       1  ZINC000435292384    0.0600
     30 H30        -9.0383   -1.2802   62.8473 H       1  ZINC000435292384    0.0600
     31 H31        -9.8562    0.4488   60.4925 H       1  ZINC000435292384    0.0800
     32 H32        -8.4829   -0.6771   60.3724 H       1  ZINC000435292384    0.0800
     33 H33        -8.8839   -2.9310   59.8511 H       1  ZINC000435292384    0.0700
     34 H34        -9.1002   -3.0767   61.6118 H       1  ZINC000435292384    0.0700
     35 H35       -10.3069   -3.7761   60.5060 H       1  ZINC000435292384    0.0600
     36 H36        -9.8007   -1.0868   57.7599 H       1  ZINC000435292384    0.0900
     37 H37       -10.0468   -2.8142   58.1545 H       1  ZINC000435292384    0.0800
     38 H38       -12.2959   -0.2991   53.1141 H       1  ZINC000435292384    0.0700
     39 H39       -10.6468   -0.8842   53.4011 H       1  ZINC000435292384    0.0900
     40 H40       -12.9281   -2.2679   51.9608 H       1  ZINC000435292384    0.0700
     41 H41       -11.2702   -1.9653   51.3950 H       1  ZINC000435292384    0.0800
     42 H42       -11.0515   -4.1767   51.9422 H       1  ZINC000435292384    0.0700
     43 H43       -10.6988   -3.4698   53.5379 H       1  ZINC000435292384    0.0600
     44 H44       -13.5453   -4.0579   52.7525 H       1  ZINC000435292384    0.0800
     45 H45       -12.5031   -5.3837   53.2809 H       1  ZINC000435292384    0.0600
     46 H46       -12.8376   -6.4231   56.4962 H       1  ZINC000435292384    0.0800
     47 H47       -13.3622   -5.0698   57.5266 H       1  ZINC000435292384    0.0800
     48 H48       -14.4576   -6.4418   57.2334 H       1  ZINC000435292384    0.1000
     49 H49       -13.6957   -2.2789   55.8836 H       1  ZINC000435292384    0.0900
     50 H50       -14.0403   -2.2031   54.1395 H       1  ZINC000435292384    0.0900
     51 H51       -12.6135    0.0887   57.3906 H       1  ZINC000435292384    0.1100
     52 H52       -13.7400   -1.2728   57.6860 H       1  ZINC000435292384    0.1100
@<TRIPOS>BOND
     1     1     2    1
     2     1    26    1
     3     1    27    1
     4     1    28    1
     5     2     3    1
     6     2    29    1
     7     2    30    1
     8     3     4    1
     9     3    31    1
    10     3    32    1
    11     4     5    1
    12     4     6    1
    13     4     7    1
    14     6    33    1
    15     6    34    1
    16     6    35    1
    17     7    24   am
    18     7     8    1
    19     8     9    1
    20     8    36    1
    21     8    37    1
    22     9    10    1
    23     9    11    1
    24     9    23    1
    25    11    12    2
    26    11    13   am
    27    13    22    1
    28    13    14    1
    29    14    15    1
    30    14    38    1
    31    14    39    1
    32    15    16    1
    33    15    40    1
    34    15    41    1
    35    16    17    1
    36    16    42    1
    37    16    43    1
    38    17    18    1
    39    17    44    1
    40    17    45    1
    41    18    19    1
    42    18    20    1
    43    18    22    1
    44    20    21    1
    45    21    46    1
    46    21    47    1
    47    21    48    1
    48    22    49    1
    49    22    50    1
    50    23    24    1
    51    23    51    1
    52    23    52    1
    53    24    25    2
@<TRIPOS>SUBSTRUCTURE
     1 ZINC000435292384        1 TEMP              0 ****  ****    0 ROOT


##########                                Name:    ZINC000543429378
##########                DOCK_Rotatable_Bonds:                   6
##########                         Heavy_Atoms:                  29
##########                    Molecular_Weight:             406.408
##########                DOCK_Rotatable_Bonds:                   6
##########                       Formal_Charge:           0.0100003
##########                     HBond_Acceptors:                   9
##########                        HBond_Donors:                   1
##########                         Heavy_Atoms:                  29
##########                          Grid_Score:          -29.854187
##########                     Grid_vdw_energy:          -30.311754
##########                      Grid_es_energy:            0.457568
##########           Internal_energy_repulsive:           38.122669

@<TRIPOS>MOLECULE
ZINC000543429378
 50 53 1 0 0
SMALL
USER_CHARGES


@<TRIPOS>ATOM
      1 O1        -11.6830   -2.0516   56.5048 O.2     1  ZINC000543429378   -0.5100
      2 C2        -11.9291   -3.2379   56.4480 C.2     1  ZINC000543429378    0.5200
      3 N3        -11.5321   -4.0569   57.4420 N.am    1  ZINC000543429378   -0.6600
      4 C4        -10.8311   -3.5395   58.5369 C.ar    1  ZINC000543429378    0.1900
      5 C5         -9.6579   -4.1490   58.9622 C.ar    1  ZINC000543429378   -0.1600
      6 C6         -8.9654   -3.6377   60.0431 C.ar    1  ZINC000543429378   -0.0600
      7 C7         -9.4380   -2.5199   60.7036 C.ar    1  ZINC000543429378   -0.2100
      8 C8        -10.6100   -1.9067   60.2828 C.ar    1  ZINC000543429378    0.1300
      9 O9        -11.0737   -0.8074   60.9334 O.3     1  ZINC000543429378   -0.3100
     10 C10       -12.4689   -0.7758   61.2408 C.3     1  ZINC000543429378    0.6000
     11 F11       -12.6668   -0.0816   62.4393 F       1  ZINC000543429378   -0.1600
     12 F12       -13.1592   -0.1309   60.2089 F       1  ZINC000543429378   -0.1300
     13 F13       -12.9466   -2.0837   61.3752 F       1  ZINC000543429378   -0.1600
     14 C14       -11.3044   -2.4132   59.1956 C.ar    1  ZINC000543429378   -0.1300
     15 C15       -12.6841   -3.7951   55.2688 C.3     1  ZINC000543429378    0.0700
     16 H16       -12.4538   -4.8535   55.1470 H       1  ZINC000543429378    0.1200
     17 C17       -12.3007   -3.0181   53.9795 C.3     1  ZINC000543429378   -0.1200
     18 C18       -13.6485   -2.9391   53.2461 C.3     1  ZINC000543429378   -0.1000
     19 H19       -13.8824   -3.8826   52.7531 H       1  ZINC000543429378    0.0900
     20 C20       -13.7962   -1.7716   52.2852 C.3     1  ZINC000543429378   -0.1100
     21 C21       -15.2392   -1.7952   51.7564 C.3     1  ZINC000543429378   -0.1200
     22 C22       -16.2529   -1.7036   52.8931 C.3     1  ZINC000543429378   -0.1100
     23 C23       -16.0207   -2.8046   53.9412 C.3     1  ZINC000543429378   -0.0900
     24 C24       -14.6015   -2.6785   54.4442 C.3     1  ZINC000543429378    0.0700
     25 H25       -14.4339   -1.6606   54.7961 H       1  ZINC000543429378    0.0900
     26 N26       -14.1454   -3.6146   55.4717 N.3     1  ZINC000543429378   -0.4300
     27 C27       -14.4028   -3.1234   56.7398 C.ar    1  ZINC000543429378    0.5000
     28 N28       -14.5724   -1.8200   56.9063 N.ar    1  ZINC000543429378   -0.5300
     29 C29       -14.8204   -1.3181   58.1048 C.ar    1  ZINC000543429378    0.1800
     30 C30       -14.9017   -2.1734   59.1924 C.ar    1  ZINC000543429378   -0.2500
     31 C31       -14.7191   -3.5313   58.9826 C.ar    1  ZINC000543429378    0.1800
     32 N32       -14.4791   -3.9684   57.7575 N.ar    1  ZINC000543429378   -0.5300
     33 H33       -11.7324   -5.0049   57.3984 H       1  ZINC000543429378    0.4200
     34 H34        -9.2868   -5.0233   58.4482 H       1  ZINC000543429378    0.1400
     35 H35        -8.0534   -4.1130   60.3725 H       1  ZINC000543429378    0.1400
     36 H36        -8.8950   -2.1230   61.5485 H       1  ZINC000543429378    0.1400
     37 H37       -12.2164   -1.9373   58.8667 H       1  ZINC000543429378    0.1500
     38 H38       -11.9292   -2.0221   54.2205 H       1  ZINC000543429378    0.0800
     39 H39       -11.5695   -3.5738   53.3924 H       1  ZINC000543429378    0.0900
     40 H40       -13.6084   -0.8343   52.8088 H       1  ZINC000543429378    0.0700
     41 H41       -13.0959   -1.8819   51.4572 H       1  ZINC000543429378    0.0700
     42 H42       -15.3847   -0.9525   51.0805 H       1  ZINC000543429378    0.0600
     43 H43       -15.4024   -2.7227   51.2076 H       1  ZINC000543429378    0.0600
     44 H44       -16.1630   -0.7292   53.3733 H       1  ZINC000543429378    0.0600
     45 H45       -17.2579   -1.8068   52.4839 H       1  ZINC000543429378    0.0700
     46 H46       -16.7195   -2.6819   54.7687 H       1  ZINC000543429378    0.0700
     47 H47       -16.1542   -3.7853   53.4845 H       1  ZINC000543429378    0.0700
     48 H48       -14.9574   -0.2547   58.2343 H       1  ZINC000543429378    0.1600
     49 H49       -15.1026   -1.7901   60.1819 H       1  ZINC000543429378    0.1400
     50 H50       -14.7757   -4.2244   59.8089 H       1  ZINC000543429378    0.1600
@<TRIPOS>BOND
     1     1     2    2
     2     2     3   am
     3     2    15    1
     4     3     4    1
     5     3    33    1
     6     4    14   ar
     7     4     5   ar
     8     5     6   ar
     9     5    34    1
    10     6     7   ar
    11     6    35    1
    12     7     8   ar
    13     7    36    1
    14     8     9    1
    15     8    14   ar
    16     9    10    1
    17    10    11    1
    18    10    12    1
    19    10    13    1
    20    14    37    1
    21    15    16    1
    22    15    26    1
    23    15    17    1
    24    17    18    1
    25    17    38    1
    26    17    39    1
    27    18    19    1
    28    18    24    1
    29    18    20    1
    30    20    21    1
    31    20    40    1
    32    20    41    1
    33    21    22    1
    34    21    42    1
    35    21    43    1
    36    22    23    1
    37    22    44    1
    38    22    45    1
    39    23    24    1
    40    23    46    1
    41    23    47    1
    42    24    25    1
    43    24    26    1
    44    26    27    1
    45    27    32   ar
    46    27    28   ar
    47    28    29   ar
    48    29    30   ar
    49    29    48    1
    50    30    31   ar
    51    30    49    1
    52    31    32   ar
    53    31    50    1
@<TRIPOS>SUBSTRUCTURE
     1 ZINC000543429378        1 TEMP              0 ****  ****    0 ROOT


##########                                Name:    ZINC000493443319
##########                DOCK_Rotatable_Bonds:                   6
##########                         Heavy_Atoms:                  25
##########                    Molecular_Weight:             348.399
##########                DOCK_Rotatable_Bonds:                   6
##########                       Formal_Charge:        -3.27826e-07
##########                     HBond_Acceptors:                   7
##########                        HBond_Donors:                   0
##########                         Heavy_Atoms:                  25
##########                          Grid_Score:          -29.838171
##########                     Grid_vdw_energy:          -29.514225
##########                      Grid_es_energy:           -0.323947
##########           Internal_energy_repulsive:           50.358395

@<TRIPOS>MOLECULE
ZINC000493443319
 49 51 1 0 0
SMALL
USER_CHARGES


@<TRIPOS>ATOM
      1 C1        -13.6546   -0.4929   48.6956 C.3     1  <0>        -0.1500
      2 C2        -14.1112   -1.0728   50.0358 C.3     1  <0>         0.0500
      3 O3        -13.0170   -1.0673   50.9547 O.3     1  <0>        -0.3200
      4 C4        -13.2774   -1.4700   52.2272 C.ar    1  <0>         0.1000
      5 C5        -14.5176   -2.0033   52.5457 C.ar    1  <0>        -0.1700
      6 C6        -14.7822   -2.4124   53.8382 C.ar    1  <0>        -0.1100
      7 C7        -13.8076   -2.2902   54.8175 C.ar    1  <0>         0.0800
      8 O8        -14.0683   -2.6925   56.0901 O.3     1  <0>        -0.3000
      9 C9        -13.5332   -3.9545   56.4939 C.3     1  <0>         0.1000
     10 C10       -14.3053   -4.4704   57.7099 C.3     1  <0>        -0.1800
     11 C11       -13.6644   -4.9555   55.3443 C.3     1  <0>        -0.1500
     12 C12       -12.0790   -3.7914   56.8544 C.2     1  <0>         0.5100
     13 O13       -11.2514   -4.5492   56.3942 O.2     1  <0>        -0.5200
     14 N14       -11.6982   -2.8034   57.6882 N.am    1  <0>        -0.6000
     15 C15       -12.6978   -1.8844   58.2469 C.3     1  <0>         0.0700
     16 C16       -12.6092   -1.9190   59.7811 C.3     1  <0>         0.1300
     17 N17       -11.1872   -1.8302   60.1409 N.am    1  <0>        -0.6300
     18 C18       -10.5951   -0.9695   60.9705 C.2     1  <0>         0.6500
     19 O19       -11.2111   -0.2112   61.6931 O.2     1  <0>        -0.5200
     20 O20        -9.2568   -1.0203   60.9310 O.3     1  <0>        -0.3200
     21 C21        -8.8373   -2.0917   60.0348 C.3     1  <0>         0.0500
     22 C22       -10.1582   -2.7253   59.5690 C.3     1  <0>         0.0800
     23 H23       -10.2643   -3.7461   59.9363 H       1  <0>         0.1100
     24 C24       -10.2804   -2.6454   58.0469 C.3     1  <0>         0.1000
     25 C25       -12.5671   -1.7582   54.4987 C.ar    1  <0>        -0.1800
     26 C26       -12.3011   -1.3527   53.2053 C.ar    1  <0>        -0.1100
     27 H27       -14.4892   -0.4970   47.9945 H       1  <0>         0.0800
     28 H28       -13.3077    0.5301   48.8415 H       1  <0>         0.0700
     29 H29       -12.8415   -1.0987   48.2958 H       1  <0>         0.0700
     30 H30       -14.9245   -0.4669   50.4355 H       1  <0>         0.0600
     31 H31       -14.4581   -2.0957   49.8897 H       1  <0>         0.0600
     32 H32       -15.2765   -2.0984   51.7831 H       1  <0>         0.1400
     33 H33       -15.7481   -2.8269   54.0864 H       1  <0>         0.1400
     34 H34       -15.3264   -4.7130   57.4157 H       1  <0>         0.0800
     35 H35       -13.8168   -5.3641   58.0981 H       1  <0>         0.0900
     36 H36       -14.3227   -3.7013   58.4822 H       1  <0>         0.0800
     37 H37       -13.1902   -4.5477   54.4516 H       1  <0>         0.0800
     38 H38       -13.1771   -5.8909   55.6195 H       1  <0>         0.0900
     39 H39       -14.7193   -5.1411   55.1427 H       1  <0>         0.0900
     40 H40       -12.5006   -0.8725   57.8931 H       1  <0>         0.0800
     41 H41       -13.6942   -2.1944   57.9321 H       1  <0>         0.1300
     42 H42       -13.1516   -1.0727   60.2028 H       1  <0>         0.1100
     43 H43       -13.0286   -2.8528   60.1556 H       1  <0>         0.0800
     44 H44        -8.2876   -1.6862   59.1854 H       1  <0>         0.1100
     45 H45        -8.2308   -2.8223   60.5701 H       1  <0>         0.1100
     46 H46        -9.6938   -3.4414   57.5882 H       1  <0>         0.1100
     47 H47        -9.9225   -1.6763   57.6992 H       1  <0>         0.0800
     48 H48       -11.8080   -1.6634   55.2612 H       1  <0>         0.1600
     49 H49       -11.3351   -0.9385   52.9571 H       1  <0>         0.1300
@<TRIPOS>BOND
     1     1     2    1
     2     1    27    1
     3     1    28    1
     4     1    29    1
     5     2     3    1
     6     2    30    1
     7     2    31    1
     8     3     4    1
     9     4    26   ar
    10     4     5   ar
    11     5     6   ar
    12     5    32    1
    13     6     7   ar
    14     6    33    1
    15     7     8    1
    16     7    25   ar
    17     8     9    1
    18     9    10    1
    19     9    11    1
    20     9    12    1
    21    10    34    1
    22    10    35    1
    23    10    36    1
    24    11    37    1
    25    11    38    1
    26    11    39    1
    27    12    13    2
    28    12    14   am
    29    14    24    1
    30    14    15    1
    31    15    16    1
    32    15    40    1
    33    15    41    1
    34    16    17    1
    35    16    42    1
    36    16    43    1
    37    17    22    1
    38    17    18   am
    39    18    19    2
    40    18    20    1
    41    20    21    1
    42    21    22    1
    43    21    44    1
    44    21    45    1
    45    22    23    1
    46    22    24    1
    47    24    46    1
    48    24    47    1
    49    25    26   ar
    50    25    48    1
    51    26    49    1
@<TRIPOS>SUBSTRUCTURE
     1 <0>         1 TEMP              0 ****  ****    0 ROOT


##########                                Name:    ZINC000461336108
##########                DOCK_Rotatable_Bonds:                   5
##########                         Heavy_Atoms:                  26
##########                    Molecular_Weight:             373.522
##########                DOCK_Rotatable_Bonds:                   5
##########                       Formal_Charge:        -3.42727e-07
##########                     HBond_Acceptors:                   7
##########                        HBond_Donors:                   0
##########                         Heavy_Atoms:                  26
##########                          Grid_Score:          -29.771011
##########                     Grid_vdw_energy:          -29.040197
##########                      Grid_es_energy:           -0.730814
##########           Internal_energy_repulsive:           11.065453

@<TRIPOS>MOLECULE
ZINC000461336108
 53 56 1 0 0
SMALL
USER_CHARGES


@<TRIPOS>ATOM
      1 C1         -8.6327   -2.5203   59.4948 C.3     1  ZINC000461336108   -0.1300
      2 C2         -9.6507   -1.6893   60.2786 C.3     1  ZINC000461336108    0.0700
      3 H3        -10.5862   -2.2433   60.3571 H       1  ZINC000461336108    0.0800
      4 C4         -9.1162   -1.4156   61.6559 C.2     1  ZINC000461336108    0.5300
      5 O5         -8.5681   -2.3157   62.2561 O.2     1  ZINC000461336108   -0.5300
      6 N6         -9.2192   -0.2208   62.2475 N.am    1  ZINC000461336108   -0.6100
      7 C7         -8.6981   -0.0662   63.6079 C.3     1  ZINC000461336108    0.0700
      8 C8         -9.8275    0.9367   61.5979 C.3     1  ZINC000461336108    0.1200
      9 C9        -10.6884    0.4831   60.4174 C.3     1  ZINC000461336108    0.0400
     10 N10        -9.8915   -0.4225   59.5748 N.3     1  ZINC000461336108   -0.4300
     11 C11       -10.5146   -0.6449   58.3572 C.2     1  ZINC000461336108    0.3300
     12 N12       -11.5153   -1.4631   58.1309 N.2     1  ZINC000461336108   -0.2500
     13 N13       -11.8433   -1.4189   56.8891 N.2     1  ZINC000461336108   -0.2800
     14 C14       -11.0778   -0.5770   56.2544 C.2     1  ZINC000461336108    0.2000
     15 C15       -11.1436   -0.2411   54.7868 C.3     1  ZINC000461336108   -0.0300
     16 C16       -12.0436   -1.2510   54.0723 C.3     1  ZINC000461336108   -0.0900
     17 C17       -12.3510   -0.7777   52.6298 C.3     1  ZINC000461336108   -0.1200
     18 C18       -12.7021   -2.1002   51.9037 C.3     1  ZINC000461336108   -0.1200
     19 C19       -11.7238   -3.1317   52.5025 C.3     1  ZINC000461336108   -0.1300
     20 C20       -11.3052   -2.5919   53.8812 C.3     1  ZINC000461336108   -0.1200
     21 N21       -10.2074   -0.0501   57.1681 N.pl3   1  ZINC000461336108   -0.4900
     22 C22        -9.1574    0.9409   56.9202 C.3     1  ZINC000461336108    0.1700
     23 C23        -9.5936    2.2799   57.4568 C.2     1  ZINC000461336108   -0.2400
     24 C24        -8.7754    3.2269   57.9182 C.2     1  ZINC000461336108   -0.0900
     25 C25        -9.4055    4.3775   58.3601 C.2     1  ZINC000461336108   -0.1400
     26 C26       -10.7353    4.3647   58.2575 C.2     1  ZINC000461336108   -0.2000
     27 S27       -11.2588    2.8358   57.5631 S.3     1  ZINC000461336108    0.1200
     28 H28        -7.6966   -1.9677   59.4155 H       1  ZINC000461336108    0.0800
     29 H29        -8.4558   -3.4622   60.0138 H       1  ZINC000461336108    0.0800
     30 H30        -9.0208   -2.7229   58.4965 H       1  ZINC000461336108    0.0700
     31 H31        -8.2799   -1.0141   63.9467 H       1  ZINC000461336108    0.0900
     32 H32        -7.9200    0.6971   63.6144 H       1  ZINC000461336108    0.0700
     33 H33        -9.5066    0.2334   64.2748 H       1  ZINC000461336108    0.0600
     34 H34       -10.4508    1.4687   62.3167 H       1  ZINC000461336108    0.0900
     35 H35        -9.0435    1.6033   61.2387 H       1  ZINC000461336108    0.0900
     36 H36       -11.5697   -0.0407   60.7876 H       1  ZINC000461336108    0.0500
     37 H37       -10.9948    1.3512   59.8336 H       1  ZINC000461336108    0.1100
     38 H38       -11.5518    0.7618   54.6615 H       1  ZINC000461336108    0.0800
     39 H39       -10.1416   -0.2814   54.3596 H       1  ZINC000461336108    0.1000
     40 H40       -12.9671   -1.4005   54.6318 H       1  ZINC000461336108    0.0900
     41 H41       -13.2001   -0.0946   52.6201 H       1  ZINC000461336108    0.0600
     42 H42       -11.4737   -0.3118   52.1810 H       1  ZINC000461336108    0.0600
     43 H43       -13.7330   -2.3870   52.1109 H       1  ZINC000461336108    0.0700
     44 H44       -12.5414   -2.0002   50.8303 H       1  ZINC000461336108    0.0700
     45 H45       -12.2199   -4.0958   52.6139 H       1  ZINC000461336108    0.0700
     46 H46       -10.8491   -3.2335   51.8601 H       1  ZINC000461336108    0.0600
     47 H47       -10.2273   -2.4316   53.9079 H       1  ZINC000461336108    0.0700
     48 H48       -11.5981   -3.2940   54.6618 H       1  ZINC000461336108    0.0700
     49 H49        -8.2397    0.6306   57.4201 H       1  ZINC000461336108    0.1200
     50 H50        -8.9782    1.0199   55.8480 H       1  ZINC000461336108    0.1000
     51 H51        -7.7026    3.1051   57.9453 H       1  ZINC000461336108    0.1400
     52 H52        -8.8616    5.2213   58.7581 H       1  ZINC000461336108    0.1500
     53 H53       -11.3903    5.1713   58.5523 H       1  ZINC000461336108    0.1700
@<TRIPOS>BOND
     1     1     2    1
     2     1    28    1
     3     1    29    1
     4     1    30    1
     5     2     3    1
     6     2    10    1
     7     2     4    1
     8     4     5    2
     9     4     6   am
    10     6     7    1
    11     6     8    1
    12     7    31    1
    13     7    32    1
    14     7    33    1
    15     8     9    1
    16     8    34    1
    17     8    35    1
    18     9    10    1
    19     9    36    1
    20     9    37    1
    21    10    11    1
    22    11    21    1
    23    11    12    2
    24    12    13    1
    25    13    14    2
    26    14    15    1
    27    14    21    1
    28    15    16    1
    29    15    38    1
    30    15    39    1
    31    16    20    1
    32    16    17    1
    33    16    40    1
    34    17    18    1
    35    17    41    1
    36    17    42    1
    37    18    19    1
    38    18    43    1
    39    18    44    1
    40    19    20    1
    41    19    45    1
    42    19    46    1
    43    20    47    1
    44    20    48    1
    45    21    22    1
    46    22    23    1
    47    22    49    1
    48    22    50    1
    49    23    27    1
    50    23    24    2
    51    24    25    1
    52    24    51    1
    53    25    26    2
    54    25    52    1
    55    26    27    1
    56    26    53    1
@<TRIPOS>SUBSTRUCTURE
     1 ZINC000461336108        1 TEMP              0 ****  ****    0 ROOT


##########                                Name:    ZINC000876376999
##########                DOCK_Rotatable_Bonds:                   7
##########                         Heavy_Atoms:                  24
##########                    Molecular_Weight:             358.502
##########                DOCK_Rotatable_Bonds:                   7
##########                       Formal_Charge:          -0.0299994
##########                     HBond_Acceptors:                   7
##########                        HBond_Donors:                   2
##########                         Heavy_Atoms:                  24
##########                          Grid_Score:          -29.716589
##########                     Grid_vdw_energy:          -29.574272
##########                      Grid_es_energy:           -0.142316
##########           Internal_energy_repulsive:           35.312016

@<TRIPOS>MOLECULE
ZINC000876376999
 54 56 1 0 0
SMALL
USER_CHARGES


@<TRIPOS>ATOM
      1 C1         -9.6573    0.6137   61.9884 C.3     1  ZINC000876376999   -0.1500
      2 C2        -10.7340   -0.3958   61.5853 C.3     1  ZINC000876376999   -0.1100
      3 C3        -10.1785   -1.3320   60.5102 C.3     1  ZINC000876376999   -0.0700
      4 C4         -9.6699   -0.5059   59.3270 C.3     1  ZINC000876376999    0.0900
      5 O5        -10.6862    0.4093   58.9132 O.3     1  ZINC000876376999   -0.5600
      6 C6         -9.0262   -2.1530   61.0935 C.3     1  ZINC000876376999   -0.1100
      7 C7         -8.4483   -3.0662   60.0099 C.3     1  ZINC000876376999   -0.1400
      8 C8         -9.5355   -4.0325   59.5289 C.3     1  ZINC000876376999    0.1100
      9 N9        -10.7051   -3.2531   59.1007 N.am    1  ZINC000876376999   -0.6300
     10 C10       -11.2361   -3.4289   57.8745 C.2     1  ZINC000876376999    0.7100
     11 O11       -10.7471   -4.2386   57.1105 O.2     1  ZINC000876376999   -0.5800
     12 N12       -12.3091   -2.7070   57.4950 N.am    1  ZINC000876376999   -0.7500
     13 C13       -12.8863   -2.8980   56.1621 C.3     1  ZINC000876376999    0.1400
     14 C14       -11.9413   -2.3107   55.1068 C.3     1  ZINC000876376999   -0.1100
     15 C15       -11.6397   -3.3337   54.0457 C.3     1  ZINC000876376999   -0.1100
     16 C16       -12.4489   -3.2141   52.7489 C.3     1  ZINC000876376999   -0.5200
     17 H17       -12.2182   -3.9961   52.0121 H       1  ZINC000876376999    0.1500
     18 C18       -13.9449   -3.1679   53.1358 C.3     1  ZINC000876376999   -0.1200
     19 C19       -14.3664   -1.7599   53.5420 C.3     1  ZINC000876376999   -0.1200
     20 C20       -13.1795   -0.7733   53.4529 C.3     1  ZINC000876376999   -0.5300
     21 H21       -13.4920    0.2584   53.2391 H       1  ZINC000876376999    0.1500
     22 C22       -12.3641   -0.9134   54.7436 C.3     1  ZINC000876376999   -0.1000
     23 S23       -12.1471   -1.5106   52.1182 S.o2    1  ZINC000876376999    2.3700
     24 O24       -10.7841   -1.1544   52.2981 O.2     1  ZINC000876376999   -0.9300
     25 O25       -12.7790   -1.3362   50.8577 O.2     1  ZINC000876376999   -0.9300
     26 C26       -11.2852   -2.2785   60.0348 C.3     1  ZINC000876376999    0.1400
     27 H27        -8.8254    0.0893   62.4587 H       1  ZINC000876376999    0.0500
     28 H28        -9.3013    1.1386   61.1020 H       1  ZINC000876376999    0.0600
     29 H29       -10.0780    1.3322   62.6918 H       1  ZINC000876376999    0.0500
     30 H30       -11.0300   -0.9791   62.4572 H       1  ZINC000876376999    0.0600
     31 H31       -11.6008    0.1351   61.1921 H       1  ZINC000876376999    0.0700
     32 H32        -8.7811    0.0493   59.6268 H       1  ZINC000876376999    0.0500
     33 H33        -9.4210   -1.1709   58.4999 H       1  ZINC000876376999    0.0400
     34 H34       -10.4327    0.9665   58.1646 H       1  ZINC000876376999    0.3800
     35 H35        -8.2480   -1.4809   61.4551 H       1  ZINC000876376999    0.0700
     36 H36        -9.3950   -2.7596   61.9209 H       1  ZINC000876376999    0.0700
     37 H37        -8.1020   -2.4618   59.1716 H       1  ZINC000876376999    0.0700
     38 H38        -7.6129   -3.6336   60.4197 H       1  ZINC000876376999    0.0800
     39 H39        -9.1591   -4.6175   58.6897 H       1  ZINC000876376999    0.0700
     40 H40        -9.8188   -4.6986   60.3436 H       1  ZINC000876376999    0.0700
     41 H41       -12.6991   -2.0609   58.1044 H       1  ZINC000876376999    0.3900
     42 H42       -13.0233   -3.9630   55.9748 H       1  ZINC000876376999    0.0800
     43 H43       -13.8506   -2.3926   56.1079 H       1  ZINC000876376999    0.0700
     44 H44       -10.9701   -2.1805   55.6630 H       1  ZINC000876376999    0.0900
     45 H45       -10.5659   -3.2816   53.7945 H       1  ZINC000876376999    0.0900
     46 H46       -11.7973   -4.3424   54.4654 H       1  ZINC000876376999    0.0900
     47 H47       -14.5407   -3.4727   52.2699 H       1  ZINC000876376999    0.0800
     48 H48       -14.1405   -3.8622   53.9478 H       1  ZINC000876376999    0.0900
     49 H49       -15.1543   -1.4232   52.8611 H       1  ZINC000876376999    0.0800
     50 H50       -14.7669   -1.7694   54.5515 H       1  ZINC000876376999    0.0900
     51 H51       -12.9508   -0.4888   55.5768 H       1  ZINC000876376999    0.0900
     52 H52       -11.4646   -0.2784   54.6605 H       1  ZINC000876376999    0.0900
     53 H53       -11.7111   -2.8018   60.8910 H       1  ZINC000876376999    0.0600
     54 H54       -12.0633   -1.7063   59.5296 H       1  ZINC000876376999    0.1000
@<TRIPOS>BOND
     1     1     2    1
     2     1    27    1
     3     1    28    1
     4     1    29    1
     5     2     3    1
     6     2    30    1
     7     2    31    1
     8     3    26    1
     9     3     4    1
    10     3     6    1
    11     4     5    1
    12     4    32    1
    13     4    33    1
    14     5    34    1
    15     6     7    1
    16     6    35    1
    17     6    36    1
    18     7     8    1
    19     7    37    1
    20     7    38    1
    21     8     9    1
    22     8    39    1
    23     8    40    1
    24     9    10   am
    25     9    26    1
    26    10    11    2
    27    10    12   am
    28    12    13    1
    29    12    41    1
    30    13    14    1
    31    13    42    1
    32    13    43    1
    33    14    22    1
    34    14    15    1
    35    14    44    1
    36    15    16    1
    37    15    45    1
    38    15    46    1
    39    16    17    1
    40    16    23    1
    41    16    18    1
    42    18    19    1
    43    18    47    1
    44    18    48    1
    45    19    20    1
    46    19    49    1
    47    19    50    1
    48    20    21    1
    49    20    22    1
    50    20    23    1
    51    22    51    1
    52    22    52    1
    53    23    24    2
    54    23    25    2
    55    26    53    1
    56    26    54    1
@<TRIPOS>SUBSTRUCTURE
     1 ZINC000876376999        1 TEMP              0 ****  ****    0 ROOT


##########                                Name:    ZINC001010141213
##########                DOCK_Rotatable_Bonds:                   4
##########                         Heavy_Atoms:                  24
##########                    Molecular_Weight:             330.346
##########                DOCK_Rotatable_Bonds:                   4
##########                       Formal_Charge:          -0.0100003
##########                     HBond_Acceptors:                   9
##########                        HBond_Donors:                   1
##########                         Heavy_Atoms:                  24
##########                          Grid_Score:          -29.588762
##########                     Grid_vdw_energy:          -28.934603
##########                      Grid_es_energy:           -0.654160
##########           Internal_energy_repulsive:           17.530764

@<TRIPOS>MOLECULE
ZINC001010141213
 42 44 1 0 0
SMALL
USER_CHARGES


@<TRIPOS>ATOM
      1 C1         -9.0973    0.0576   53.4158 C.3     1  ZINC001010141213   -0.0800
      2 C2        -10.4438    0.4260   52.8480 C.2     1  ZINC001010141213   -0.1500
      3 C3        -11.4503   -0.4360   52.4488 C.2     1  ZINC001010141213   -0.0400
      4 C4        -11.4227   -1.9067   52.4925 C.2     1  ZINC001010141213    0.6000
      5 O5        -11.2516   -2.5425   51.4699 O.2     1  ZINC001010141213   -0.5100
      6 N6        -11.5869   -2.5492   53.6659 N.am    1  ZINC001010141213   -0.6100
      7 C7        -11.8006   -1.7942   54.9085 C.3     1  ZINC001010141213    0.0900
      8 C8        -13.0975   -2.2854   55.5635 C.3     1  ZINC001010141213    0.0700
      9 N9        -13.0666   -3.7535   55.6233 N.am    1  ZINC001010141213   -0.6000
     10 C10       -13.2318   -4.3960   56.7964 C.2     1  ZINC001010141213    0.5900
     11 O11       -13.2043   -5.6106   56.8333 O.2     1  ZINC001010141213   -0.5200
     12 C12       -13.4466   -3.6232   58.0388 C.2     1  ZINC001010141213    0.0300
     13 N13       -12.4829   -2.8671   58.5147 N.2     1  ZINC001010141213   -0.1800
     14 N14       -12.6198   -2.1775   59.5889 N.am    1  ZINC001010141213   -0.4400
     15 C15       -13.7646   -2.1869   60.2969 C.2     1  ZINC001010141213    0.4800
     16 O16       -13.8634   -1.5202   61.3136 O.2     1  ZINC001010141213   -0.5100
     17 C17       -14.8510   -2.9740   59.8542 C.2     1  ZINC001010141213   -0.1800
     18 C18       -14.6917   -3.6959   58.7087 C.2     1  ZINC001010141213   -0.0400
     19 C19       -12.8529   -4.5086   54.3806 C.3     1  ZINC001010141213    0.1000
     20 C20       -11.5616   -4.0174   53.7247 C.3     1  ZINC001010141213    0.1000
     21 N21       -12.4746    0.3520   52.0061 N.pl3   1  ZINC001010141213   -0.2700
     22 C22       -13.7533   -0.1386   51.4863 C.3     1  ZINC001010141213    0.0900
     23 N23       -12.1456    1.5888   52.1157 N.2     1  ZINC001010141213   -0.2800
     24 C24       -10.9435    1.7099   52.6184 C.2     1  ZINC001010141213    0.0100
     25 H25        -9.1682   -0.0152   54.5011 H       1  ZINC001010141213    0.0700
     26 H26        -8.7809   -0.9021   53.0073 H       1  ZINC001010141213    0.0600
     27 H27        -8.3689    0.8237   53.1499 H       1  ZINC001010141213    0.0700
     28 H28       -10.9630   -1.9601   55.5860 H       1  ZINC001010141213    0.0800
     29 H29       -11.8855   -0.7316   54.6810 H       1  ZINC001010141213    0.1000
     30 H30       -13.1742   -1.8798   56.5724 H       1  ZINC001010141213    0.1400
     31 H31       -13.9526   -1.9613   54.9704 H       1  ZINC001010141213    0.0800
     32 H32       -11.8778   -1.6350   59.8990 H       1  ZINC001010141213    0.4500
     33 H33       -15.7804   -2.9994   60.4036 H       1  ZINC001010141213    0.1700
     34 H34       -15.4913   -4.3133   58.3270 H       1  ZINC001010141213    0.1700
     35 H35       -12.7681   -5.5711   54.6081 H       1  ZINC001010141213    0.1100
     36 H36       -13.6906   -4.3427   53.7031 H       1  ZINC001010141213    0.0800
     37 H37       -11.4863   -4.4237   52.7160 H       1  ZINC001010141213    0.1100
     38 H38       -10.7051   -4.3399   54.3166 H       1  ZINC001010141213    0.0800
     39 H39       -14.4896   -0.1563   52.2899 H       1  ZINC001010141213    0.0900
     40 H40       -14.0995    0.5215   50.6909 H       1  ZINC001010141213    0.1000
     41 H41       -13.6225   -1.1460   51.0912 H       1  ZINC001010141213    0.0900
     42 H42       -10.4268    2.6378   52.8145 H       1  ZINC001010141213    0.1900
@<TRIPOS>BOND
     1     1     2    1
     2     1    25    1
     3     1    26    1
     4     1    27    1
     5     2    24    1
     6     2     3    2
     7     3     4    1
     8     3    21    1
     9     4     5    2
    10     4     6   am
    11     6    20    1
    12     6     7    1
    13     7     8    1
    14     7    28    1
    15     7    29    1
    16     8     9    1
    17     8    30    1
    18     8    31    1
    19     9    10   am
    20     9    19    1
    21    10    11    2
    22    10    12    1
    23    12    18    1
    24    12    13    2
    25    13    14    1
    26    14    15   am
    27    14    32    1
    28    15    16    2
    29    15    17    1
    30    17    18    2
    31    17    33    1
    32    18    34    1
    33    19    20    1
    34    19    35    1
    35    19    36    1
    36    20    37    1
    37    20    38    1
    38    21    22    1
    39    21    23    1
    40    22    39    1
    41    22    40    1
    42    22    41    1
    43    23    24    2
    44    24    42    1
@<TRIPOS>SUBSTRUCTURE
     1 ZINC001010141213        1 TEMP              0 ****  ****    0 ROOT


##########                                Name:    ZINC000548281822
##########                DOCK_Rotatable_Bonds:                   6
##########                         Heavy_Atoms:                  24
##########                    Molecular_Weight:             332.406
##########                DOCK_Rotatable_Bonds:                   6
##########                       Formal_Charge:        -5.58794e-08
##########                     HBond_Acceptors:                   8
##########                        HBond_Donors:                   2
##########                         Heavy_Atoms:                  24
##########                          Grid_Score:          -29.554789
##########                     Grid_vdw_energy:          -29.333197
##########                      Grid_es_energy:           -0.221592
##########           Internal_energy_repulsive:            6.326941

@<TRIPOS>MOLECULE
ZINC000548281822
 48 50 1 0 0
SMALL
USER_CHARGES


@<TRIPOS>ATOM
      1 C1        -14.6234   -4.0372   54.4874 C.3     1  ZINC000548281822   -0.1700
      2 C2        -13.7853   -2.7575   54.4532 C.3     1  ZINC000548281822    0.2600
      3 H3        -14.2809   -1.9829   55.0385 H       1  ZINC000548281822    0.1400
      4 N4        -12.4612   -3.0257   55.0197 N.am    1  ZINC000548281822   -0.7400
      5 C5        -12.2182   -2.7624   56.3189 C.2     1  ZINC000548281822    0.7100
      6 O6        -13.0974   -2.3008   57.0206 O.2     1  ZINC000548281822   -0.5700
      7 N7        -11.0005   -3.0106   56.8406 N.am    1  ZINC000548281822   -0.7400
      8 C8        -10.7369   -2.7260   58.2533 C.3     1  ZINC000548281822    0.1600
      9 H9        -11.6130   -2.9869   58.8468 H       1  ZINC000548281822    0.1000
     10 C10        -9.5355   -3.5502   58.7254 C.3     1  ZINC000548281822   -0.1400
     11 C11        -9.4031   -3.4356   60.2480 C.3     1  ZINC000548281822    0.1100
     12 N12        -9.4395   -2.0193   60.6197 N.pl3   1  ZINC000548281822   -0.4600
     13 C13        -9.0417   -1.4537   61.7944 C.2     1  ZINC000548281822   -0.0500
     14 C14        -9.2606   -0.1280   61.6797 C.2     1  ZINC000548281822   -0.0300
     15 N15        -9.7795    0.1048   60.4632 N.2     1  ZINC000548281822   -0.4900
     16 C16        -9.8904   -1.0219   59.8223 C.2     1  ZINC000548281822    0.2100
     17 C17       -10.4268   -1.2337   58.4261 C.3     1  ZINC000548281822   -0.0500
     18 C18       -13.6369   -2.2921   53.0276 C.2     1  ZINC000548281822    0.1700
     19 N19       -14.5825   -1.7988   52.2647 N.2     1  ZINC000548281822   -0.4600
     20 C20       -13.9923   -1.5259   51.0874 C.2     1  ZINC000548281822    0.1900
     21 C21       -14.6593   -0.9389   49.8702 C.3     1  ZINC000548281822    0.0200
     22 C22       -13.9270   -1.4080   48.6113 C.3     1  ZINC000548281822   -0.1400
     23 C23       -16.1167   -1.4012   49.8145 C.3     1  ZINC000548281822   -0.1400
     24 C24       -14.6113    0.5883   49.9489 C.3     1  ZINC000548281822   -0.1400
     25 N25       -12.7411   -1.8610   51.1923 N.2     1  ZINC000548281822   -0.3700
     26 O26       -12.5152   -2.2980   52.3012 O.3     1  ZINC000548281822    0.0800
     27 H27       -14.1279   -4.8117   53.9021 H       1  ZINC000548281822    0.0700
     28 H28       -14.7308   -4.3737   55.5185 H       1  ZINC000548281822    0.0900
     29 H29       -15.6086   -3.8376   54.0659 H       1  ZINC000548281822    0.0800
     30 H30       -11.7594   -3.3928   54.4597 H       1  ZINC000548281822    0.4000
     31 H31       -10.2987   -3.3777   56.2806 H       1  ZINC000548281822    0.4000
     32 H32        -9.6812   -4.5949   58.4511 H       1  ZINC000548281822    0.1000
     33 H33        -8.6283   -3.1737   58.2526 H       1  ZINC000548281822    0.0800
     34 H34       -10.2295   -3.9605   60.7271 H       1  ZINC000548281822    0.0900
     35 H35        -8.4565   -3.8726   60.5663 H       1  ZINC000548281822    0.1000
     36 H36        -8.6314   -1.9678   62.6511 H       1  ZINC000548281822    0.1800
     37 H37        -9.0551    0.6164   62.4347 H       1  ZINC000548281822    0.1700
     38 H38        -9.6793   -0.9267   57.6945 H       1  ZINC000548281822    0.0900
     39 H39       -11.3372   -0.6502   58.2895 H       1  ZINC000548281822    0.1000
     40 H40       -13.9612   -2.4960   48.5553 H       1  ZINC000548281822    0.0600
     41 H41       -14.4094   -0.9834   47.7309 H       1  ZINC000548281822    0.0700
     42 H42       -12.8886   -1.0786   48.6510 H       1  ZINC000548281822    0.0700
     43 H43       -16.6384   -1.0670   50.7112 H       1  ZINC000548281822    0.0600
     44 H44       -16.5991   -0.9766   48.9340 H       1  ZINC000548281822    0.0700
     45 H45       -16.1510   -2.4892   49.7584 H       1  ZINC000548281822    0.0600
     46 H46       -13.5730    0.9177   49.9885 H       1  ZINC000548281822    0.0700
     47 H47       -15.0937    1.0128   49.0684 H       1  ZINC000548281822    0.0700
     48 H48       -15.1330    0.9225   50.8456 H       1  ZINC000548281822    0.0600
@<TRIPOS>BOND
     1     1     2    1
     2     1    27    1
     3     1    28    1
     4     1    29    1
     5     2     3    1
     6     2     4    1
     7     2    18    1
     8     4     5   am
     9     4    30    1
    10     5     6    2
    11     5     7   am
    12     7     8    1
    13     7    31    1
    14     8     9    1
    15     8    17    1
    16     8    10    1
    17    10    11    1
    18    10    32    1
    19    10    33    1
    20    11    12    1
    21    11    34    1
    22    11    35    1
    23    12    16    1
    24    12    13    1
    25    13    14    2
    26    13    36    1
    27    14    15    1
    28    14    37    1
    29    15    16    2
    30    16    17    1
    31    17    38    1
    32    17    39    1
    33    18    26    1
    34    18    19    2
    35    19    20    1
    36    20    21    1
    37    20    25    2
    38    21    22    1
    39    21    23    1
    40    21    24    1
    41    22    40    1
    42    22    41    1
    43    22    42    1
    44    23    43    1
    45    23    44    1
    46    23    45    1
    47    24    46    1
    48    24    47    1
    49    24    48    1
    50    25    26    1
@<TRIPOS>SUBSTRUCTURE
     1 ZINC000548281822        1 TEMP              0 ****  ****    0 ROOT


##########                                Name:    ZINC000176150038
##########                DOCK_Rotatable_Bonds:                   4
##########                         Heavy_Atoms:                  23
##########                    Molecular_Weight:             333.712
##########                DOCK_Rotatable_Bonds:                   4
##########                       Formal_Charge:        -2.23517e-07
##########                     HBond_Acceptors:                  10
##########                        HBond_Donors:                   1
##########                         Heavy_Atoms:                  23
##########                          Grid_Score:          -29.546085
##########                     Grid_vdw_energy:          -27.530388
##########                      Grid_es_energy:           -2.015698
##########           Internal_energy_repulsive:            5.657572

@<TRIPOS>MOLECULE
ZINC000176150038
 32 34 1 0 0
SMALL
USER_CHARGES


@<TRIPOS>ATOM
      1 C1        -12.0610    1.6019   60.8440 C.3     1  ZINC000176150038   -0.0900
      2 C2        -12.8513    0.5928   61.6367 C.2     1  ZINC000176150038    0.2600
      3 N3        -13.8857    0.8420   62.3964 N.2     1  ZINC000176150038   -0.3300
      4 N4        -14.3268   -0.2397   62.9298 N.2     1  ZINC000176150038   -0.0300
      5 N5        -13.6132   -1.2453   62.5528 N.2     1  ZINC000176150038   -0.0700
      6 N6        -12.6259   -0.7378   61.6898 N.pl3   1  ZINC000176150038   -0.3300
      7 C7        -11.6178   -1.4581   61.0313 C.ar    1  ZINC000176150038    0.1400
      8 C8        -10.3326   -1.4904   61.5549 C.ar    1  ZINC000176150038   -0.1000
      9 C9         -9.3383   -2.1996   60.9079 C.ar    1  ZINC000176150038   -0.1100
     10 C10        -9.6204   -2.8793   59.7372 C.ar    1  ZINC000176150038    0.1000
     11 F11        -8.6467   -3.5722   59.1070 F       1  ZINC000176150038   -0.1200
     12 C12       -10.9071   -2.8501   59.2082 C.ar    1  ZINC000176150038    0.1300
     13 N13       -11.1934   -3.5376   58.0234 N.am    1  ZINC000176150038   -0.6500
     14 C14       -11.6833   -2.8713   56.9593 C.2     1  ZINC000176150038    0.5700
     15 O15       -11.8763   -1.6736   57.0285 O.2     1  ZINC000176150038   -0.4800
     16 C16       -11.9868   -3.6000   55.7035 C.ar    1  ZINC000176150038    0.1400
     17 N17       -11.3014   -3.3460   54.5909 N.ar    1  ZINC000176150038   -0.4800
     18 C18       -11.5672   -3.9904   53.4754 C.ar    1  ZINC000176150038    0.3000
     19 N19       -12.5131   -4.9070   53.4068 N.ar    1  ZINC000176150038   -0.4800
     20 C20       -13.2393   -5.2181   54.4665 C.ar    1  ZINC000176150038    0.1700
     21 C21       -12.9928   -4.5686   55.6696 C.ar    1  ZINC000176150038   -0.1000
     22 Cl22      -13.9187   -4.9420   57.0899 Cl      1  ZINC000176150038    0.0100
     23 C23       -11.9067   -2.1428   59.8597 C.ar    1  ZINC000176150038   -0.0800
     24 H24       -12.4984    1.7069   59.8511 H       1  ZINC000176150038    0.1100
     25 H25       -12.0846    2.5644   61.3551 H       1  ZINC000176150038    0.1100
     26 H26       -11.0287    1.2642   60.7526 H       1  ZINC000176150038    0.0900
     27 H27       -10.1092   -0.9601   62.4689 H       1  ZINC000176150038    0.1500
     28 H28        -8.3391   -2.2228   61.3173 H       1  ZINC000176150038    0.1600
     29 H29       -11.0393   -4.4936   57.9682 H       1  ZINC000176150038    0.4300
     30 H30       -10.9940   -3.7618   52.5890 H       1  ZINC000176150038    0.2200
     31 H31       -14.0114   -5.9703   54.3990 H       1  ZINC000176150038    0.1900
     32 H32       -12.9063   -2.1185   59.4513 H       1  ZINC000176150038    0.1700
@<TRIPOS>BOND
     1     1     2    1
     2     1    24    1
     3     1    25    1
     4     1    26    1
     5     2     6    1
     6     2     3    2
     7     3     4    1
     8     4     5    2
     9     5     6    1
    10     6     7    1
    11     7    23   ar
    12     7     8   ar
    13     8     9   ar
    14     8    27    1
    15     9    10   ar
    16     9    28    1
    17    10    11    1
    18    10    12   ar
    19    12    13    1
    20    12    23   ar
    21    13    14   am
    22    13    29    1
    23    14    15    2
    24    14    16    1
    25    16    21   ar
    26    16    17   ar
    27    17    18   ar
    28    18    19   ar
    29    18    30    1
    30    19    20   ar
    31    20    21   ar
    32    20    31    1
    33    21    22    1
    34    23    32    1
@<TRIPOS>SUBSTRUCTURE
     1 ZINC000176150038        1 TEMP              0 ****  ****    0 ROOT


##########                                Name:    ZINC000866717058
##########                DOCK_Rotatable_Bonds:                   7
##########                         Heavy_Atoms:                  25
##########                    Molecular_Weight:             380.388
##########                DOCK_Rotatable_Bonds:                   7
##########                       Formal_Charge:                0.04
##########                     HBond_Acceptors:                  10
##########                        HBond_Donors:                   1
##########                         Heavy_Atoms:                  25
##########                          Grid_Score:          -29.542625
##########                     Grid_vdw_energy:          -28.338207
##########                      Grid_es_energy:           -1.204419
##########           Internal_energy_repulsive:            9.669833

@<TRIPOS>MOLECULE
ZINC000866717058
 44 45 1 0 0
SMALL
USER_CHARGES


@<TRIPOS>ATOM
      1 C1        -13.6291   -3.2603   57.0994 C.3     1  ZINC000866717058   -0.1100
      2 C2        -12.9784   -3.3122   55.7412 C.ar    1  ZINC000866717058    0.2400
      3 N3        -13.7161   -3.1786   54.6593 N.ar    1  ZINC000866717058   -0.5500
      4 C4        -13.1881   -3.2175   53.4453 C.ar    1  ZINC000866717058    0.3500
      5 O5        -13.9908   -3.0743   52.3631 O.3     1  ZINC000866717058   -0.2800
      6 C6        -14.3523   -1.7416   51.9954 C.3     1  ZINC000866717058    0.0500
      7 H7        -14.3788   -1.1135   52.8858 H       1  ZINC000866717058    0.1300
      8 C8        -13.3213   -1.1869   51.0103 C.3     1  ZINC000866717058   -0.1700
      9 C9        -15.7333   -1.7512   51.3368 C.3     1  ZINC000866717058    0.4600
     10 F10       -16.6548   -2.3614   52.1945 F       1  ZINC000866717058   -0.1700
     11 F11       -16.1360   -0.4364   51.0789 F       1  ZINC000866717058   -0.1700
     12 F12       -15.6718   -2.4644   50.1348 F       1  ZINC000866717058   -0.1700
     13 C13       -11.8210   -3.4028   53.2653 C.ar    1  ZINC000866717058   -0.1900
     14 C14       -11.0084   -3.5475   54.3712 C.ar    1  ZINC000866717058    0.0000
     15 C15       -11.5984   -3.4959   55.6426 C.ar    1  ZINC000866717058   -0.2300
     16 C16       -10.7737   -3.6447   56.8577 C.2     1  ZINC000866717058    0.5800
     17 O17       -10.3233   -4.7337   57.1571 O.2     1  ZINC000866717058   -0.5200
     18 N18       -10.5199   -2.5735   57.6354 N.am    1  ZINC000866717058   -0.7400
     19 C19        -9.7027   -2.7217   58.8423 C.3     1  ZINC000866717058    0.1400
     20 C20       -10.2401   -1.7992   59.9383 C.3     1  ZINC000866717058   -0.5700
     21 H21       -11.1504   -2.2096   60.3754 H       1  ZINC000866717058    0.1500
     22 C22        -9.1658   -1.5578   61.0300 C.3     1  ZINC000866717058   -0.1100
     23 C23        -9.5865   -0.2865   61.7880 C.3     1  ZINC000866717058   -0.1200
     24 C24        -9.9559    0.8021   60.7609 C.3     1  ZINC000866717058   -0.5900
     25 S25       -10.5359   -0.1135   59.2826 S.o2    1  ZINC000866717058    2.3700
     26 O26        -9.6483    0.1296   58.1998 O.2     1  ZINC000866717058   -0.9200
     27 O27       -11.9317    0.0955   59.1169 O.2     1  ZINC000866717058   -0.9300
     28 H28       -13.5403   -2.2532   57.5066 H       1  ZINC000866717058    0.0900
     29 H29       -14.6829   -3.5235   57.0077 H       1  ZINC000866717058    0.0700
     30 H30       -13.1349   -3.9668   57.7664 H       1  ZINC000866717058    0.1100
     31 H31       -13.5972   -0.1703   50.7298 H       1  ZINC000866717058    0.0900
     32 H32       -12.3376   -1.1801   51.4794 H       1  ZINC000866717058    0.0900
     33 H33       -13.2950   -1.8150   50.1199 H       1  ZINC000866717058    0.0800
     34 H34       -11.4004   -3.4334   52.2710 H       1  ZINC000866717058    0.1600
     35 H35        -9.9440   -3.6930   54.2606 H       1  ZINC000866717058    0.1500
     36 H36       -10.8781   -1.7046   57.3958 H       1  ZINC000866717058    0.4000
     37 H37        -9.7447   -3.7556   59.1847 H       1  ZINC000866717058    0.1000
     38 H38        -8.6702   -2.4552   58.6170 H       1  ZINC000866717058    0.1000
     39 H39        -9.1313   -2.4060   61.7137 H       1  ZINC000866717058    0.1100
     40 H40        -8.1899   -1.4108   60.5673 H       1  ZINC000866717058    0.0900
     41 H41       -10.4492   -0.5039   62.4178 H       1  ZINC000866717058    0.0900
     42 H42        -8.7603    0.0604   62.4086 H       1  ZINC000866717058    0.1000
     43 H43       -10.7548    1.4337   61.1494 H       1  ZINC000866717058    0.1400
     44 H44        -9.0809    1.4045   60.5166 H       1  ZINC000866717058    0.1400
@<TRIPOS>BOND
     1     1     2    1
     2     1    28    1
     3     1    29    1
     4     1    30    1
     5     2    15   ar
     6     2     3   ar
     7     3     4   ar
     8     4     5    1
     9     4    13   ar
    10     5     6    1
    11     6     7    1
    12     6     8    1
    13     6     9    1
    14     8    31    1
    15     8    32    1
    16     8    33    1
    17     9    10    1
    18     9    11    1
    19     9    12    1
    20    13    14   ar
    21    13    34    1
    22    14    15   ar
    23    14    35    1
    24    15    16    1
    25    16    17    2
    26    16    18   am
    27    18    19    1
    28    18    36    1
    29    19    20    1
    30    19    37    1
    31    19    38    1
    32    20    21    1
    33    20    25    1
    34    20    22    1
    35    22    23    1
    36    22    39    1
    37    22    40    1
    38    23    24    1
    39    23    41    1
    40    23    42    1
    41    24    25    1
    42    24    43    1
    43    24    44    1
    44    25    26    2
    45    25    27    2
@<TRIPOS>SUBSTRUCTURE
     1 ZINC000866717058        1 TEMP              0 ****  ****    0 ROOT


##########                                Name:    ZINC000599228306
##########                DOCK_Rotatable_Bonds:                   8
##########                         Heavy_Atoms:                  25
##########                    Molecular_Weight:             379.382
##########                DOCK_Rotatable_Bonds:                   8
##########                       Formal_Charge:        -4.09782e-08
##########                     HBond_Acceptors:                  10
##########                        HBond_Donors:                   1
##########                         Heavy_Atoms:                  25
##########                          Grid_Score:          -29.527836
##########                     Grid_vdw_energy:          -26.626913
##########                      Grid_es_energy:           -2.900924
##########           Internal_energy_repulsive:           37.297180

@<TRIPOS>MOLECULE
ZINC000599228306
 44 44 1 0 0
SMALL
USER_CHARGES


@<TRIPOS>ATOM
      1 C1        -14.3020   -4.0057   57.3554 C.3     1  ZINC000599228306    0.0400
      2 O2        -12.9841   -4.1303   57.9520 O.3     1  ZINC000599228306   -0.3500
      3 C3        -11.9982   -3.3825   57.4191 C.2     1  ZINC000599228306    0.5100
      4 O4        -11.9555   -3.1998   56.2187 O.2     1  ZINC000599228306   -0.4800
      5 C5        -10.9703   -2.7853   58.2934 C.ar    1  ZINC000599228306   -0.1500
      6 C6         -9.8528   -3.5318   58.6739 C.ar    1  ZINC000599228306   -0.0100
      7 C7         -8.8949   -2.9665   59.4922 C.ar    1  ZINC000599228306    0.0700
      8 F8         -7.8134   -3.6874   59.8611 F       1  ZINC000599228306   -0.1200
      9 C9         -9.0397   -1.6612   59.9359 C.ar    1  ZINC000599228306    0.0100
     10 C10       -10.1429   -0.9159   59.5636 C.ar    1  ZINC000599228306   -0.7100
     11 S11       -10.3160    0.7425   60.1333 S.o2    1  ZINC000599228306    2.7000
     12 O12        -9.6779    1.5670   59.1677 O.2     1  ZINC000599228306   -0.9200
     13 O13       -11.6774    0.8975   60.5097 O.2     1  ZINC000599228306   -0.9300
     14 N14        -9.4278    0.8782   61.5244 N.am    1  ZINC000599228306   -1.1000
     15 C15        -9.7431    0.0349   62.6800 C.3     1  ZINC000599228306    0.1600
     16 H16       -10.2831   -0.8513   62.3465 H       1  ZINC000599228306    0.1300
     17 C17        -8.4458   -0.3885   63.3717 C.3     1  ZINC000599228306   -0.1700
     18 C18       -10.5992    0.8097   63.6485 C.2     1  ZINC000599228306    0.4700
     19 O19       -11.8000    0.6774   63.6329 O.2     1  ZINC000599228306   -0.4900
     20 O20       -10.0276    1.6468   64.5284 O.3     1  ZINC000599228306   -0.3400
     21 C21       -10.9172    2.4533   65.3447 C.3     1  ZINC000599228306    0.1200
     22 C22       -11.8254    3.2868   64.4386 C.3     1  ZINC000599228306   -0.1900
     23 C23       -11.7734    1.5385   66.2227 C.3     1  ZINC000599228306   -0.1400
     24 C24       -10.0899    3.3846   66.2332 C.3     1  ZINC000599228306   -0.1800
     25 C25       -11.1074   -1.4668   58.7404 C.ar    1  ZINC000599228306    0.2500
     26 F26       -12.1848   -0.7370   58.3771 F       1  ZINC000599228306   -0.0900
     27 H27       -15.0004   -4.6596   57.8774 H       1  ZINC000599228306    0.1100
     28 H28       -14.6413   -2.9730   57.4362 H       1  ZINC000599228306    0.0700
     29 H29       -14.2534   -4.2908   56.3044 H       1  ZINC000599228306    0.0700
     30 H30        -9.7383   -4.5489   58.3291 H       1  ZINC000599228306    0.1700
     31 H31        -8.2872   -1.2245   60.5757 H       1  ZINC000599228306    0.1800
     32 H32        -8.6986    1.5160   61.5739 H       1  ZINC000599228306    0.4300
     33 H33        -8.6805   -1.0159   64.2316 H       1  ZINC000599228306    0.0900
     34 H34        -7.8267   -0.9489   62.6711 H       1  ZINC000599228306    0.0700
     35 H35        -7.9059    0.4978   63.7051 H       1  ZINC000599228306    0.0800
     36 H36       -12.4148    2.6234   63.8056 H       1  ZINC000599228306    0.0600
     37 H37       -12.4932    3.8923   65.0514 H       1  ZINC000599228306    0.0700
     38 H38       -11.2155    3.9386   63.8131 H       1  ZINC000599228306    0.0800
     39 H39       -11.1263    0.9447   66.8682 H       1  ZINC000599228306    0.0700
     40 H40       -12.4412    2.1440   66.8356 H       1  ZINC000599228306    0.0800
     41 H41       -12.3628    0.8750   65.5897 H       1  ZINC000599228306    0.0700
     42 H42        -9.4799    4.0364   65.6077 H       1  ZINC000599228306    0.0800
     43 H43       -10.7577    3.9901   66.8461 H       1  ZINC000599228306    0.0700
     44 H44        -9.4427    2.7908   66.8788 H       1  ZINC000599228306    0.0600
@<TRIPOS>BOND
     1     1     2    1
     2     1    27    1
     3     1    28    1
     4     1    29    1
     5     2     3    1
     6     3     4    2
     7     3     5    1
     8     5    25   ar
     9     5     6   ar
    10     6     7   ar
    11     6    30    1
    12     7     8    1
    13     7     9   ar
    14     9    10   ar
    15     9    31    1
    16    10    11    1
    17    10    25   ar
    18    11    12    2
    19    11    13    2
    20    11    14   am
    21    14    15    1
    22    14    32    1
    23    15    16    1
    24    15    17    1
    25    15    18    1
    26    17    33    1
    27    17    34    1
    28    17    35    1
    29    18    19    2
    30    18    20    1
    31    20    21    1
    32    21    22    1
    33    21    23    1
    34    21    24    1
    35    22    36    1
    36    22    37    1
    37    22    38    1
    38    23    39    1
    39    23    40    1
    40    23    41    1
    41    24    42    1
    42    24    43    1
    43    24    44    1
    44    25    26    1
@<TRIPOS>SUBSTRUCTURE
     1 ZINC000599228306        1 TEMP              0 ****  ****    0 ROOT


##########                                Name:    ZINC001708427409
##########                DOCK_Rotatable_Bonds:                   6
##########                         Heavy_Atoms:                  24
##########                    Molecular_Weight:             334.505
##########                DOCK_Rotatable_Bonds:                   6
##########                       Formal_Charge:          -0.0200006
##########                     HBond_Acceptors:                   5
##########                        HBond_Donors:                   1
##########                         Heavy_Atoms:                  24
##########                          Grid_Score:          -29.524651
##########                     Grid_vdw_energy:          -29.039665
##########                      Grid_es_energy:           -0.484985
##########           Internal_energy_repulsive:           23.068714

@<TRIPOS>MOLECULE
ZINC001708427409
 58 60 1 0 0
SMALL
USER_CHARGES


@<TRIPOS>ATOM
      1 C1         -9.7572    2.6942   59.8915 C.3     1  ZINC001708427409   -0.1500
      2 C2         -9.1233    2.7257   58.4995 C.3     1  ZINC001708427409   -0.1200
      3 C3         -8.8504    1.2950   58.0309 C.3     1  ZINC001708427409    0.0000
      4 H4         -8.3461    0.7428   58.8239 H       1  ZINC001708427409    0.0800
      5 C5         -7.9609    1.3268   56.7865 C.3     1  ZINC001708427409   -0.1400
      6 C6        -10.1550    0.6177   57.6986 C.2     1  ZINC001708427409    0.1800
      7 N7        -11.2471    1.2018   57.2936 N.2     1  ZINC001708427409   -0.2800
      8 N8        -12.1695    0.3275   57.1024 N.2     1  ZINC001708427409   -0.3200
      9 C9        -11.7117   -0.8711   57.3774 C.2     1  ZINC001708427409    0.3600
     10 N10       -12.4151   -2.0619   57.2892 N.3     1  ZINC001708427409   -0.4200
     11 C11       -12.2700   -2.6688   55.9369 C.3     1  ZINC001708427409    0.0400
     12 C12       -13.4884   -3.6069   55.7933 C.3     1  ZINC001708427409   -0.0900
     13 H13       -13.2082   -4.6316   56.0368 H       1  ZINC001708427409    0.0900
     14 C14       -14.0508   -3.5339   54.3723 C.3     1  ZINC001708427409   -0.1500
     15 C15       -14.5285   -3.0747   56.8153 C.3     1  ZINC001708427409   -0.0800
     16 H16       -15.4702   -2.8281   56.3252 H       1  ZINC001708427409    0.0900
     17 C17       -14.7271   -4.1679   57.8657 C.3     1  ZINC001708427409   -0.1100
     18 C18       -15.4891   -3.6014   59.0633 C.3     1  ZINC001708427409   -0.1200
     19 C19       -14.6148   -2.5470   59.7385 C.3     1  ZINC001708427409   -0.1100
     20 C20       -14.2983   -1.4189   58.7778 C.3     1  ZINC001708427409   -0.1000
     21 C21       -13.8711   -1.8268   57.3990 C.3     1  ZINC001708427409    0.1000
     22 H22       -14.1012   -0.9952   56.7329 H       1  ZINC001708427409    0.0600
     23 N23       -10.4104   -0.7241   57.7607 N.pl3   1  ZINC001708427409   -0.4700
     24 C24        -9.4823   -1.7834   58.1645 C.3     1  ZINC001708427409    0.0800
     25 C25        -9.7809   -2.2007   59.6059 C.3     1  ZINC001708427409    0.1200
     26 C26        -8.9849   -3.4623   59.9467 C.3     1  ZINC001708427409   -0.1800
     27 C27        -9.3794   -1.0719   60.5573 C.3     1  ZINC001708427409   -0.1500
     28 O28       -11.1780   -2.4668   59.7451 O.3     1  ZINC001708427409   -0.5400
     29 H29        -9.0769    2.2067   60.5897 H       1  ZINC001708427409    0.0600
     30 H30        -9.9516    3.7135   60.2254 H       1  ZINC001708427409    0.0600
     31 H31       -10.6949    2.1401   59.8512 H       1  ZINC001708427409    0.0500
     32 H32        -9.8036    3.2131   57.8012 H       1  ZINC001708427409    0.0700
     33 H33        -8.1855    3.2798   58.5397 H       1  ZINC001708427409    0.0800
     34 H34        -7.0173    1.8166   57.0267 H       1  ZINC001708427409    0.0700
     35 H35        -7.7665    0.3075   56.4526 H       1  ZINC001708427409    0.0500
     36 H36        -8.4652    1.8789   55.9933 H       1  ZINC001708427409    0.0700
     37 H37       -12.2939   -1.8953   55.1692 H       1  ZINC001708427409    0.0600
     38 H38       -11.3428   -3.2385   55.8741 H       1  ZINC001708427409    0.0800
     39 H39       -13.2908   -3.8623   53.6634 H       1  ZINC001708427409    0.0600
     40 H40       -14.9247   -4.1807   54.2937 H       1  ZINC001708427409    0.0600
     41 H41       -14.3378   -2.5067   54.1474 H       1  ZINC001708427409    0.0600
     42 H42       -15.2955   -4.9899   57.4303 H       1  ZINC001708427409    0.0600
     43 H43       -13.7551   -4.5350   58.1951 H       1  ZINC001708427409    0.0700
     44 H44       -16.4180   -3.1438   58.7233 H       1  ZINC001708427409    0.0600
     45 H45       -15.7088   -4.4021   59.7697 H       1  ZINC001708427409    0.0600
     46 H46       -15.1412   -2.1446   60.6039 H       1  ZINC001708427409    0.0600
     47 H47       -13.6844   -3.0095   60.0681 H       1  ZINC001708427409    0.0600
     48 H48       -15.1874   -0.7963   58.6779 H       1  ZINC001708427409    0.0600
     49 H49       -13.5081   -0.8093   59.2158 H       1  ZINC001708427409    0.0700
     50 H50        -9.6026   -2.6428   57.5050 H       1  ZINC001708427409    0.0900
     51 H51        -8.4587   -1.4145   58.0976 H       1  ZINC001708427409    0.1000
     52 H52        -7.9193   -3.2592   59.8405 H       1  ZINC001708427409    0.0700
     53 H53        -9.1977   -3.7597   60.9736 H       1  ZINC001708427409    0.0700
     54 H54        -9.2709   -4.2665   59.2689 H       1  ZINC001708427409    0.0600
     55 H55        -9.8844   -0.1518   60.2630 H       1  ZINC001708427409    0.0700
     56 H56        -9.6674   -1.3348   61.5752 H       1  ZINC001708427409    0.0700
     57 H57        -8.3003   -0.9246   60.5117 H       1  ZINC001708427409    0.0700
     58 H58       -11.5027   -3.1743   59.1713 H       1  ZINC001708427409    0.3800
@<TRIPOS>BOND
     1     1     2    1
     2     1    29    1
     3     1    30    1
     4     1    31    1
     5     2     3    1
     6     2    32    1
     7     2    33    1
     8     3     4    1
     9     3     5    1
    10     3     6    1
    11     5    34    1
    12     5    35    1
    13     5    36    1
    14     6    23    1
    15     6     7    2
    16     7     8    1
    17     8     9    2
    18     9    10    1
    19     9    23    1
    20    10    21    1
    21    10    11    1
    22    11    12    1
    23    11    37    1
    24    11    38    1
    25    12    13    1
    26    12    14    1
    27    12    15    1
    28    14    39    1
    29    14    40    1
    30    14    41    1
    31    15    16    1
    32    15    21    1
    33    15    17    1
    34    17    18    1
    35    17    42    1
    36    17    43    1
    37    18    19    1
    38    18    44    1
    39    18    45    1
    40    19    20    1
    41    19    46    1
    42    19    47    1
    43    20    21    1
    44    20    48    1
    45    20    49    1
    46    21    22    1
    47    23    24    1
    48    24    25    1
    49    24    50    1
    50    24    51    1
    51    25    26    1
    52    25    27    1
    53    25    28    1
    54    26    52    1
    55    26    53    1
    56    26    54    1
    57    27    55    1
    58    27    56    1
    59    27    57    1
    60    28    58    1
@<TRIPOS>SUBSTRUCTURE
     1 ZINC001708427409        1 TEMP              0 ****  ****    0 ROOT


##########                                Name:    ZINC001318556452
##########                DOCK_Rotatable_Bonds:                   4
##########                         Heavy_Atoms:                  26
##########                    Molecular_Weight:             368.456
##########                DOCK_Rotatable_Bonds:                   4
##########                       Formal_Charge:          -0.0200005
##########                     HBond_Acceptors:                   6
##########                        HBond_Donors:                   1
##########                         Heavy_Atoms:                  26
##########                          Grid_Score:          -29.518166
##########                     Grid_vdw_energy:          -25.835482
##########                      Grid_es_energy:           -3.682684
##########           Internal_energy_repulsive:           13.160236

@<TRIPOS>MOLECULE
ZINC001318556452
 46 48 1 0 0
SMALL
USER_CHARGES


@<TRIPOS>ATOM
      1 C1        -13.2016   -1.2160   60.1803 C.3     1  ZINC001318556452   -0.1300
      2 C2        -12.1889   -0.1137   60.3543 C.ar    1  ZINC001318556452   -0.1000
      3 C3        -11.9654    0.4287   61.6043 C.ar    1  ZINC001318556452   -0.0500
      4 C4        -12.7354   -0.0820   62.7949 C.3     1  ZINC001318556452   -0.4100
      5 S5        -14.1930    0.9632   63.0659 S.o     1  ZINC001318556452    1.2500
      6 C6        -14.9765    0.2030   64.5145 C.3     1  ZINC001318556452   -0.4900
      7 O7        -15.0639    0.8607   61.9478 O.2     1  ZINC001318556452   -0.8400
      8 C8        -11.0355    1.4398   61.7649 C.ar    1  ZINC001318556452   -0.1200
      9 C9        -10.3273    1.9115   60.6751 C.ar    1  ZINC001318556452   -0.1000
     10 C10       -10.5466    1.3741   59.4218 C.ar    1  ZINC001318556452   -0.1200
     11 C11       -11.4749    0.3541   59.2581 C.ar    1  ZINC001318556452    0.1400
     12 N12       -11.6990   -0.1925   57.9911 N.am    1  ZINC001318556452   -0.6600
     13 C13       -10.8570   -1.1232   57.5001 C.2     1  ZINC001318556452    0.5600
     14 O14        -9.9031   -1.4874   58.1588 O.2     1  ZINC001318556452   -0.5000
     15 C15       -11.0946   -1.7029   56.1564 C.2     1  ZINC001318556452   -0.0300
     16 C16       -10.4796   -1.1833   55.0532 C.2     1  ZINC001318556452   -0.1600
     17 C17       -10.7335   -1.7767   53.7426 C.2     1  ZINC001318556452    0.5300
     18 O18       -10.1853   -1.3138   52.7581 O.2     1  ZINC001318556452   -0.5200
     19 N19       -11.5626   -2.8262   53.6067 N.am    1  ZINC001318556452   -0.5200
     20 C20       -11.7902   -3.3933   52.2752 C.3     1  ZINC001318556452    0.0600
     21 C21       -12.2027   -3.3797   54.6949 C.ar    1  ZINC001318556452    0.1800
     22 C22       -13.0576   -4.4667   54.5326 C.ar    1  ZINC001318556452   -0.1700
     23 C23       -13.6910   -5.0103   55.6289 C.ar    1  ZINC001318556452   -0.0600
     24 C24       -13.4854   -4.4846   56.8970 C.ar    1  ZINC001318556452   -0.1500
     25 C25       -12.6508   -3.4184   57.0794 C.ar    1  ZINC001318556452   -0.0600
     26 C26       -11.9933   -2.8544   55.9825 C.ar    1  ZINC001318556452   -0.1100
     27 H27       -12.7146   -2.1816   60.3161 H       1  ZINC001318556452    0.0800
     28 H28       -13.9939   -1.1015   60.9201 H       1  ZINC001318556452    0.0800
     29 H29       -13.6290   -1.1622   59.1790 H       1  ZINC001318556452    0.0700
     30 H30       -13.0534   -1.1079   62.6090 H       1  ZINC001318556452    0.1000
     31 H31       -12.0984   -0.0535   63.6789 H       1  ZINC001318556452    0.1300
     32 H32       -14.2836    0.2243   65.3556 H       1  ZINC001318556452    0.1100
     33 H33       -15.8785    0.7580   64.7728 H       1  ZINC001318556452    0.1100
     34 H34       -15.2385   -0.8300   64.2857 H       1  ZINC001318556452    0.0800
     35 H35       -10.8623    1.8621   62.7438 H       1  ZINC001318556452    0.1200
     36 H36        -9.6020    2.7014   60.8040 H       1  ZINC001318556452    0.1300
     37 H37        -9.9933    1.7433   58.5709 H       1  ZINC001318556452    0.1500
     38 H38       -12.4606    0.0982   57.4653 H       1  ZINC001318556452    0.4100
     39 H39        -9.8112   -0.3404   55.1489 H       1  ZINC001318556452    0.1600
     40 H40       -11.2094   -2.8372   51.5393 H       1  ZINC001318556452    0.1000
     41 H41       -11.4810   -4.4384   52.2677 H       1  ZINC001318556452    0.0800
     42 H42       -12.8497   -3.3261   52.0279 H       1  ZINC001318556452    0.0800
     43 H43       -13.2242   -4.8825   53.5498 H       1  ZINC001318556452    0.1400
     44 H44       -14.3539   -5.8531   55.5003 H       1  ZINC001318556452    0.1300
     45 H45       -13.9896   -4.9217   57.7462 H       1  ZINC001318556452    0.1300
     46 H46       -12.4960   -3.0152   58.0693 H       1  ZINC001318556452    0.1700
@<TRIPOS>BOND
     1     1     2    1
     2     1    27    1
     3     1    28    1
     4     1    29    1
     5     2    11   ar
     6     2     3   ar
     7     3     4    1
     8     3     8   ar
     9     4     5    1
    10     4    30    1
    11     4    31    1
    12     5     6    1
    13     5     7    2
    14     6    32    1
    15     6    33    1
    16     6    34    1
    17     8     9   ar
    18     8    35    1
    19     9    10   ar
    20     9    36    1
    21    10    11   ar
    22    10    37    1
    23    11    12    1
    24    12    13   am
    25    12    38    1
    26    13    14    2
    27    13    15    1
    28    15    26    1
    29    15    16    2
    30    16    17    1
    31    16    39    1
    32    17    18    2
    33    17    19   am
    34    19    20    1
    35    19    21    1
    36    20    40    1
    37    20    41    1
    38    20    42    1
    39    21    26   ar
    40    21    22   ar
    41    22    23   ar
    42    22    43    1
    43    23    24   ar
    44    23    44    1
    45    24    25   ar
    46    24    45    1
    47    25    26   ar
    48    25    46    1
@<TRIPOS>SUBSTRUCTURE
     1 ZINC001318556452        1 TEMP              0 ****  ****    0 ROOT


##########                                Name:    ZINC001356153960
##########                DOCK_Rotatable_Bonds:                   8
##########                         Heavy_Atoms:                  24
##########                    Molecular_Weight:             334.366
##########                DOCK_Rotatable_Bonds:                   8
##########                       Formal_Charge:           0.0100003
##########                     HBond_Acceptors:                   6
##########                        HBond_Donors:                   1
##########                         Heavy_Atoms:                  24
##########                          Grid_Score:          -29.499546
##########                     Grid_vdw_energy:          -29.795166
##########                      Grid_es_energy:            0.295620
##########           Internal_energy_repulsive:           13.656659

@<TRIPOS>MOLECULE
ZINC001356153960
 44 46 1 0 0
SMALL
USER_CHARGES


@<TRIPOS>ATOM
      1 O1        -12.4299   -5.1582   56.4762 O.2     1  ZINC001356153960   -0.5200
      2 C2        -13.3094   -4.3272   56.5680 C.2     1  ZINC001356153960    0.5100
      3 N3        -13.7405   -3.6779   55.4683 N.am    1  ZINC001356153960   -0.7000
      4 C4        -13.1514   -3.9798   54.1614 C.3     1  ZINC001356153960    0.1300
      5 C5        -11.8205   -3.2388   54.0184 C.3     1  ZINC001356153960   -0.0800
      6 H6        -11.1091   -3.5898   54.7659 H       1  ZINC001356153960    0.0900
      7 C7        -11.2595   -3.4278   52.6281 C.2     1  ZINC001356153960   -0.1700
      8 C8        -10.8201   -2.2993   52.1412 C.2     1  ZINC001356153960   -0.1600
      9 C9        -11.0147   -1.1695   53.1256 C.3     1  ZINC001356153960   -0.1000
     10 C10       -12.0359   -1.7136   54.1542 C.3     1  ZINC001356153960   -0.1200
     11 C11       -13.9104   -4.0192   57.9011 C.2     1  ZINC001356153960    0.5100
     12 O12       -14.8267   -4.6931   58.3240 O.2     1  ZINC001356153960   -0.5100
     13 N13       -13.4346   -2.9930   58.6339 N.am    1  ZINC001356153960   -0.5500
     14 C14       -12.3283   -2.1794   58.1235 C.3     1  ZINC001356153960    0.1300
     15 C15       -11.3258   -1.9474   59.2244 C.ar    1  ZINC001356153960   -0.1600
     16 C16       -11.2920   -0.7332   59.8833 C.ar    1  ZINC001356153960   -0.0300
     17 C17       -10.3767   -0.5210   60.8971 C.ar    1  ZINC001356153960   -0.1700
     18 C18        -9.4849   -1.5210   61.2459 C.ar    1  ZINC001356153960    0.1400
     19 F19        -8.5870   -1.3115   62.2333 F       1  ZINC001356153960   -0.1300
     20 C20        -9.5140   -2.7359   60.5826 C.ar    1  ZINC001356153960   -0.2000
     21 C21       -10.4347   -2.9492   59.5715 C.ar    1  ZINC001356153960    0.1500
     22 F22       -10.4639   -4.1341   58.9232 F       1  ZINC001356153960   -0.1200
     23 C23       -14.0237   -2.6908   59.9408 C.3     1  ZINC001356153960    0.0700
     24 C24       -15.5255   -2.4019   59.9888 C.3     1  ZINC001356153960   -0.1900
     25 C25       -14.5201   -1.2633   60.1790 C.3     1  ZINC001356153960   -0.1800
     26 H26       -14.4406   -3.0108   55.5423 H       1  ZINC001356153960    0.4100
     27 H27       -12.9803   -5.0532   54.0792 H       1  ZINC001356153960    0.0800
     28 H28       -13.8324   -3.6591   53.3730 H       1  ZINC001356153960    0.0800
     29 H29       -11.2269   -4.3725   52.1058 H       1  ZINC001356153960    0.1200
     30 H30       -10.3761   -2.1876   51.1632 H       1  ZINC001356153960    0.1300
     31 H31       -10.0728   -0.9291   53.6187 H       1  ZINC001356153960    0.0800
     32 H32       -11.4131   -0.2898   52.6201 H       1  ZINC001356153960    0.0700
     33 H33       -13.0535   -1.4360   53.8792 H       1  ZINC001356153960    0.0800
     34 H34       -11.7980   -1.3730   55.1620 H       1  ZINC001356153960    0.0800
     35 H35       -11.8458   -2.7000   57.2965 H       1  ZINC001356153960    0.0900
     36 H36       -12.7131   -1.2210   57.7746 H       1  ZINC001356153960    0.1400
     37 H37       -11.9841    0.0491   59.6087 H       1  ZINC001356153960    0.1600
     38 H38       -10.3539    0.4269   61.4142 H       1  ZINC001356153960    0.1400
     39 H39        -8.8186   -3.5164   60.8537 H       1  ZINC001356153960    0.1500
     40 H40       -13.5855   -3.2192   60.7875 H       1  ZINC001356153960    0.1400
     41 H41       -16.0751   -2.4366   59.0482 H       1  ZINC001356153960    0.1400
     42 H42       -16.0751   -2.7398   60.8674 H       1  ZINC001356153960    0.0900
     43 H43       -14.4088   -0.8528   61.1825 H       1  ZINC001356153960    0.1000
     44 H44       -14.4083   -0.5490   59.3633 H       1  ZINC001356153960    0.0900
@<TRIPOS>BOND
     1     1     2    2
     2     2     3   am
     3     2    11    1
     4     3     4    1
     5     3    26    1
     6     4     5    1
     7     4    27    1
     8     4    28    1
     9     5     6    1
    10     5    10    1
    11     5     7    1
    12     7     8    2
    13     7    29    1
    14     8     9    1
    15     8    30    1
    16     9    10    1
    17     9    31    1
    18     9    32    1
    19    10    33    1
    20    10    34    1
    21    11    12    2
    22    11    13   am
    23    13    14    1
    24    13    23    1
    25    14    15    1
    26    14    35    1
    27    14    36    1
    28    15    21   ar
    29    15    16   ar
    30    16    17   ar
    31    16    37    1
    32    17    18   ar
    33    17    38    1
    34    18    19    1
    35    18    20   ar
    36    20    21   ar
    37    20    39    1
    38    21    22    1
    39    23    25    1
    40    23    24    1
    41    23    40    1
    42    24    25    1
    43    24    41    1
    44    24    42    1
    45    25    43    1
    46    25    44    1
@<TRIPOS>SUBSTRUCTURE
     1 ZINC001356153960        1 TEMP              0 ****  ****    0 ROOT


##########                                Name:    ZINC001345966764
##########                DOCK_Rotatable_Bonds:                  10
##########                         Heavy_Atoms:                  22
##########                    Molecular_Weight:             333.258
##########                DOCK_Rotatable_Bonds:                  10
##########                       Formal_Charge:           0.0099997
##########                     HBond_Acceptors:                  11
##########                        HBond_Donors:                   4
##########                         Heavy_Atoms:                  22
##########                          Grid_Score:          -29.435625
##########                     Grid_vdw_energy:          -27.866053
##########                      Grid_es_energy:           -1.569573
##########           Internal_energy_repulsive:            7.034719

@<TRIPOS>MOLECULE
ZINC001345966764
 38 38 1 0 0
SMALL
USER_CHARGES


@<TRIPOS>ATOM
      1 N1         -2.3652    2.0876   57.6849 N.3     1  ZINC001345966764   -0.8400
      2 C2         -3.6340    2.0417   56.9459 C.3     1  ZINC001345966764    0.0200
      3 C3         -4.1960    3.4581   56.8091 C.3     1  ZINC001345966764    0.2800
      4 F4         -4.4165    3.9972   58.0811 F       1  ZINC001345966764   -0.1900
      5 F5         -3.2811    4.2580   56.1158 F       1  ZINC001345966764   -0.1800
      6 C6         -5.5174    3.4104   56.0394 C.3     1  ZINC001345966764    0.0800
      7 N7         -6.5165    2.6858   56.8289 N.am    1  ZINC001345966764   -0.7000
      8 C8         -7.4423    1.9261   56.2106 C.2     1  ZINC001345966764    0.5100
      9 O9         -7.4494    1.8436   54.9999 O.2     1  ZINC001345966764   -0.5100
     10 C10        -8.4604    1.1855   57.0160 C.2     1  ZINC001345966764    0.5100
     11 O11        -9.3498    0.5771   56.4581 O.2     1  ZINC001345966764   -0.5100
     12 N12        -8.3905    1.1935   58.3619 N.am    1  ZINC001345966764   -0.7000
     13 C13        -9.3874    0.4660   59.1514 C.3     1  ZINC001345966764    0.1200
     14 C14        -8.9256   -0.9791   59.3495 C.3     1  ZINC001345966764    0.0600
     15 H15        -7.8371   -1.0286   59.3764 H       1  ZINC001345966764    0.0900
     16 C16        -9.5227   -1.5610   60.6499 C.3     1  ZINC001345966764   -0.1400
     17 C17        -9.8333   -3.0324   60.2948 C.3     1  ZINC001345966764   -0.1500
     18 C18        -9.3871   -3.1652   58.8219 C.3     1  ZINC001345966764    0.0300
     19 H19        -8.3695   -3.5518   58.7671 H       1  ZINC001345966764    0.1200
     20 C20       -10.3450   -4.0797   58.0556 C.3     1  ZINC001345966764    0.4600
     21 F21       -11.6603   -3.6434   58.2480 F       1  ZINC001345966764   -0.1700
     22 F22       -10.0357   -4.0412   56.6918 F       1  ZINC001345966764   -0.1700
     23 F23       -10.2150   -5.3907   58.5264 F       1  ZINC001345966764   -0.1700
     24 O24        -9.4411   -1.8207   58.2950 O.3     1  ZINC001345966764   -0.3500
     25 H25        -2.4980    2.4734   58.6077 H       1  ZINC001345966764    0.3500
     26 H26        -1.9414    1.1731   57.7328 H       1  ZINC001345966764    0.3600
     27 H27        -3.4622    1.6217   55.9548 H       1  ZINC001345966764    0.1100
     28 H28        -4.3468    1.4186   57.4860 H       1  ZINC001345966764    0.0700
     29 H29        -5.8672    4.4260   55.8547 H       1  ZINC001345966764    0.1100
     30 H30        -5.3657    2.8997   55.0885 H       1  ZINC001345966764    0.1100
     31 H31        -6.5117    2.7527   57.7965 H       1  ZINC001345966764    0.4200
     32 H32        -7.6803    1.6807   58.8079 H       1  ZINC001345966764    0.4200
     33 H33        -9.5030    0.9470   60.1228 H       1  ZINC001345966764    0.1000
     34 H34       -10.3426    0.4735   58.6264 H       1  ZINC001345966764    0.0900
     35 H35        -8.7960   -1.5090   61.4606 H       1  ZINC001345966764    0.0900
     36 H36       -10.4368   -1.0323   60.9206 H       1  ZINC001345966764    0.0900
     37 H37        -9.2602   -3.7078   60.9300 H       1  ZINC001345966764    0.1000
     38 H38       -10.9009   -3.2310   60.3899 H       1  ZINC001345966764    0.0900
@<TRIPOS>BOND
     1     1     2    1
     2     1    25    1
     3     1    26    1
     4     2     3    1
     5     2    27    1
     6     2    28    1
     7     3     4    1
     8     3     5    1
     9     3     6    1
    10     6     7    1
    11     6    29    1
    12     6    30    1
    13     7     8   am
    14     7    31    1
    15     8     9    2
    16     8    10    1
    17    10    11    2
    18    10    12   am
    19    12    13    1
    20    12    32    1
    21    13    14    1
    22    13    33    1
    23    13    34    1
    24    14    15    1
    25    14    24    1
    26    14    16    1
    27    16    17    1
    28    16    35    1
    29    16    36    1
    30    17    18    1
    31    17    37    1
    32    17    38    1
    33    18    19    1
    34    18    20    1
    35    18    24    1
    36    20    21    1
    37    20    22    1
    38    20    23    1
@<TRIPOS>SUBSTRUCTURE
     1 ZINC001345966764        1 TEMP              0 ****  ****    0 ROOT


##########                                Name:    ZINC000288921983
##########                DOCK_Rotatable_Bonds:                   6
##########                         Heavy_Atoms:                  26
##########                    Molecular_Weight:             356.428
##########                DOCK_Rotatable_Bonds:                   6
##########                       Formal_Charge:           0.0199997
##########                     HBond_Acceptors:                   8
##########                        HBond_Donors:                   1
##########                         Heavy_Atoms:                  26
##########                          Grid_Score:          -29.388859
##########                     Grid_vdw_energy:          -28.371307
##########                      Grid_es_energy:           -1.017551
##########           Internal_energy_repulsive:           60.690285

@<TRIPOS>MOLECULE
ZINC000288921983
 50 53 1 0 0
SMALL
USER_CHARGES


@<TRIPOS>ATOM
      1 C1         -9.2595   -1.6212   61.1847 C.3     1  ZINC000288921983   -0.1400
      2 C2         -8.9926   -2.9331   60.4442 C.3     1  ZINC000288921983   -0.0500
      3 C3         -9.8887   -3.0192   59.2356 C.ar    1  ZINC000288921983    0.3000
      4 N4        -11.0730   -2.4422   59.2750 N.ar    1  ZINC000288921983   -0.5000
      5 C5        -11.8889   -2.4950   58.2352 C.ar    1  ZINC000288921983    0.1300
      6 C6        -11.4800   -3.1720   57.0894 C.ar    1  ZINC000288921983    0.0500
      7 N7        -12.3122   -3.2515   55.9665 N.am    1  ZINC000288921983   -0.6700
      8 C8        -11.9576   -2.6380   54.8201 C.2     1  ZINC000288921983    0.7100
      9 O9        -10.9149   -2.0154   54.7611 O.2     1  ZINC000288921983   -0.5500
     10 N10       -12.7588   -2.7145   53.7390 N.am    1  ZINC000288921983   -0.6200
     11 C11       -14.0219   -3.4630   53.7950 C.3     1  ZINC000288921983    0.1100
     12 C12       -15.1596   -2.5451   53.3367 C.3     1  ZINC000288921983   -0.1400
     13 C13       -14.8263   -1.9769   51.9553 C.3     1  ZINC000288921983   -0.1200
     14 C14       -13.5418   -1.1492   52.0388 C.3     1  ZINC000288921983   -0.1300
     15 C15       -12.3886   -2.0462   52.4841 C.3     1  ZINC000288921983    0.2700
     16 H16       -12.1948   -2.7985   51.7196 H       1  ZINC000288921983    0.1100
     17 C17       -11.1521   -1.2113   52.6965 C.2     1  ZINC000288921983    0.1700
     18 N18        -9.9431   -1.5140   52.3174 N.2     1  ZINC000288921983   -0.2500
     19 N19        -9.1385   -0.5717   52.6639 N.2     1  ZINC000288921983   -0.2700
     20 C20        -9.8069    0.3643   53.2759 C.2     1  ZINC000288921983    0.1800
     21 C21        -9.2397    1.6410   53.8410 C.3     1  ZINC000288921983   -0.0300
     22 C22       -10.1950    2.3667   54.8030 C.3     1  ZINC000288921983   -0.1200
     23 C23        -9.5708    1.5278   55.9305 C.3     1  ZINC000288921983   -0.1400
     24 C24        -8.3147    1.4222   55.0497 C.3     1  ZINC000288921983   -0.1200
     25 O25       -11.0953   -0.0154   53.3064 O.3     1  ZINC000288921983   -0.2200
     26 C26       -10.2214   -3.7674   57.0895 C.ar    1  ZINC000288921983    0.1600
     27 N27        -9.4630   -3.6646   58.1682 N.ar    1  ZINC000288921983   -0.5000
     28 H28        -8.6113   -1.5590   62.0588 H       1  ZINC000288921983    0.0700
     29 H29        -9.0556   -0.7811   60.5207 H       1  ZINC000288921983    0.0600
     30 H30       -10.3018   -1.5888   61.5022 H       1  ZINC000288921983    0.0600
     31 H31        -7.9503   -2.9656   60.1267 H       1  ZINC000288921983    0.0900
     32 H32        -9.1965   -3.7732   61.1082 H       1  ZINC000288921983    0.0900
     33 H33       -12.8581   -2.0202   58.2746 H       1  ZINC000288921983    0.1700
     34 H34       -13.1441   -3.7482   56.0136 H       1  ZINC000288921983    0.4100
     35 H35       -13.9631   -4.3289   53.1356 H       1  ZINC000288921983    0.0800
     36 H36       -14.2070   -3.7916   54.8176 H       1  ZINC000288921983    0.0800
     37 H37       -16.0871   -3.1151   53.2816 H       1  ZINC000288921983    0.0900
     38 H38       -15.2763   -1.7275   54.0480 H       1  ZINC000288921983    0.0700
     39 H39       -14.6855   -2.7959   51.2501 H       1  ZINC000288921983    0.0700
     40 H40       -15.6455   -1.3428   51.6163 H       1  ZINC000288921983    0.0800
     41 H41       -13.3177   -0.7256   51.0597 H       1  ZINC000288921983    0.0900
     42 H42       -13.6737   -0.3447   52.7623 H       1  ZINC000288921983    0.0900
     43 H43        -8.8126    2.2894   53.0759 H       1  ZINC000288921983    0.1000
     44 H44        -9.9965    3.4347   54.8924 H       1  ZINC000288921983    0.1000
     45 H45       -11.2469    2.1441   54.6243 H       1  ZINC000288921983    0.0800
     46 H46        -9.4115    2.0859   56.8531 H       1  ZINC000288921983    0.0700
     47 H47       -10.0715    0.5733   56.0931 H       1  ZINC000288921983    0.1000
     48 H48        -7.8485    0.4371   55.0702 H       1  ZINC000288921983    0.0700
     49 H49        -7.6021    2.2320   55.2066 H       1  ZINC000288921983    0.1000
     50 H50        -9.8680   -4.3018   56.2201 H       1  ZINC000288921983    0.1800
@<TRIPOS>BOND
     1     1     2    1
     2     1    28    1
     3     1    29    1
     4     1    30    1
     5     2     3    1
     6     2    31    1
     7     2    32    1
     8     3    27   ar
     9     3     4   ar
    10     4     5   ar
    11     5     6   ar
    12     5    33    1
    13     6     7    1
    14     6    26   ar
    15     7     8   am
    16     7    34    1
    17     8     9    2
    18     8    10   am
    19    10    15    1
    20    10    11    1
    21    11    12    1
    22    11    35    1
    23    11    36    1
    24    12    13    1
    25    12    37    1
    26    12    38    1
    27    13    14    1
    28    13    39    1
    29    13    40    1
    30    14    15    1
    31    14    41    1
    32    14    42    1
    33    15    16    1
    34    15    17    1
    35    17    25    1
    36    17    18    2
    37    18    19    1
    38    19    20    2
    39    20    21    1
    40    20    25    1
    41    21    24    1
    42    21    22    1
    43    21    43    1
    44    22    23    1
    45    22    44    1
    46    22    45    1
    47    23    24    1
    48    23    46    1
    49    23    47    1
    50    24    48    1
    51    24    49    1
    52    26    27   ar
    53    26    50    1
@<TRIPOS>SUBSTRUCTURE
     1 ZINC000288921983        1 TEMP              0 ****  ****    0 ROOT


##########                                Name:    ZINC000345028113
##########                DOCK_Rotatable_Bonds:                   5
##########                         Heavy_Atoms:                  21
##########                    Molecular_Weight:             331.838
##########                DOCK_Rotatable_Bonds:                   5
##########                       Formal_Charge:         4.47035e-07
##########                     HBond_Acceptors:                   6
##########                        HBond_Donors:                   0
##########                         Heavy_Atoms:                  21
##########                          Grid_Score:          -29.386322
##########                     Grid_vdw_energy:          -29.107361
##########                      Grid_es_energy:           -0.278961
##########           Internal_energy_repulsive:           17.234512

@<TRIPOS>MOLECULE
ZINC000345028113
 40 41 1 0 0
SMALL
USER_CHARGES


@<TRIPOS>ATOM
      1 C1        -12.1299   -1.3545   55.3679 C.3     1  ZINC000345028113   -0.1700
      2 C2        -11.6468   -2.8020   55.2557 C.3     1  ZINC000345028113    0.1400
      3 H3        -10.6192   -2.8707   55.6125 H       1  ZINC000345028113    0.1100
      4 C4        -11.7101   -3.2494   53.7913 C.3     1  ZINC000345028113   -0.0700
      5 H5        -11.3306   -4.2674   53.7037 H       1  ZINC000345028113    0.0900
      6 C6        -10.8622   -2.3102   52.9311 C.3     1  ZINC000345028113   -0.1400
      7 S7        -13.4397   -3.1941   53.2363 S.3     1  ZINC000345028113   -0.2400
      8 C8        -14.2778   -4.2241   54.4771 C.3     1  ZINC000345028113   -0.1100
      9 C9        -13.9547   -3.6780   55.8719 C.3     1  ZINC000345028113    0.1000
     10 N10       -12.5042   -3.6668   56.0679 N.am    1  ZINC000345028113   -0.6100
     11 C11       -11.9520   -4.4611   57.0063 C.2     1  ZINC000345028113    0.5200
     12 O12       -12.6565   -5.1790   57.6839 O.2     1  ZINC000345028113   -0.5300
     13 C13       -10.4594   -4.4572   57.2136 C.3     1  ZINC000345028113   -0.1400
     14 C14       -10.0631   -3.2356   58.0451 C.3     1  ZINC000345028113    0.0700
     15 O15       -10.5842   -3.3709   59.3688 O.3     1  ZINC000345028113   -0.3000
     16 C16       -10.2866   -2.3821   60.2534 C.ar    1  ZINC000345028113    0.1300
     17 C17        -9.1241   -2.4507   61.0056 C.ar    1  ZINC000345028113   -0.1700
     18 C18        -8.8225   -1.4448   61.9041 C.ar    1  ZINC000345028113   -0.1100
     19 C19        -9.6804   -0.3687   62.0536 C.ar    1  ZINC000345028113    0.0800
     20 F20        -9.3837    0.6139   62.9321 F       1  ZINC000345028113   -0.1300
     21 C21       -10.8422   -0.2982   61.3033 C.ar    1  ZINC000345028113   -0.1100
     22 C22       -11.1439   -1.3000   60.4001 C.ar    1  ZINC000345028113   -0.0400
     23 Cl23      -12.6003   -1.2117   59.4594 Cl      1  ZINC000345028113   -0.0400
     24 H24       -12.0848   -1.0362   56.4094 H       1  ZINC000345028113    0.0600
     25 H25       -11.4914   -0.7106   54.7631 H       1  ZINC000345028113    0.0800
     26 H26       -13.1575   -1.2857   55.0110 H       1  ZINC000345028113    0.0800
     27 H27        -9.8279   -2.3378   53.2741 H       1  ZINC000345028113    0.0800
     28 H28       -10.9084   -2.6301   51.8901 H       1  ZINC000345028113    0.0700
     29 H29       -11.2462   -1.2936   53.0163 H       1  ZINC000345028113    0.0700
     30 H30       -15.3548   -4.1910   54.3123 H       1  ZINC000345028113    0.1200
     31 H31       -13.9254   -5.2525   54.3967 H       1  ZINC000345028113    0.0900
     32 H32       -14.3415   -2.6631   55.9633 H       1  ZINC000345028113    0.0900
     33 H33       -14.4183   -4.3129   56.6270 H       1  ZINC000345028113    0.1000
     34 H34       -10.1631   -5.3655   57.7384 H       1  ZINC000345028113    0.1100
     35 H35        -9.9583   -4.4166   56.2464 H       1  ZINC000345028113    0.1100
     36 H36        -8.9764   -3.1624   58.0881 H       1  ZINC000345028113    0.0800
     37 H37       -10.4700   -2.3352   57.5848 H       1  ZINC000345028113    0.0800
     38 H38        -8.4544   -3.2900   60.8899 H       1  ZINC000345028113    0.1500
     39 H39        -7.9171   -1.4984   62.4903 H       1  ZINC000345028113    0.1500
     40 H40       -11.5108    0.5418   61.4211 H       1  ZINC000345028113    0.1500
@<TRIPOS>BOND
     1     1     2    1
     2     1    24    1
     3     1    25    1
     4     1    26    1
     5     2     3    1
     6     2    10    1
     7     2     4    1
     8     4     5    1
     9     4     6    1
    10     4     7    1
    11     6    27    1
    12     6    28    1
    13     6    29    1
    14     7     8    1
    15     8     9    1
    16     8    30    1
    17     8    31    1
    18     9    10    1
    19     9    32    1
    20     9    33    1
    21    10    11   am
    22    11    12    2
    23    11    13    1
    24    13    14    1
    25    13    34    1
    26    13    35    1
    27    14    15    1
    28    14    36    1
    29    14    37    1
    30    15    16    1
    31    16    22   ar
    32    16    17   ar
    33    17    18   ar
    34    17    38    1
    35    18    19   ar
    36    18    39    1
    37    19    20    1
    38    19    21   ar
    39    21    22   ar
    40    21    40    1
    41    22    23    1
@<TRIPOS>SUBSTRUCTURE
     1 ZINC000345028113        1 TEMP              0 ****  ****    0 ROOT


##########                                Name:    ZINC000426567005
##########                DOCK_Rotatable_Bonds:                   9
##########                         Heavy_Atoms:                  31
##########                    Molecular_Weight:             417.467
##########                DOCK_Rotatable_Bonds:                   9
##########                       Formal_Charge:        -2.23517e-07
##########                     HBond_Acceptors:                   8
##########                        HBond_Donors:                   4
##########                         Heavy_Atoms:                  31
##########                          Grid_Score:          -29.382696
##########                     Grid_vdw_energy:          -27.572226
##########                      Grid_es_energy:           -1.810471
##########           Internal_energy_repulsive:            8.907618

@<TRIPOS>MOLECULE
ZINC000426567005
 54 57 1 0 0
SMALL
USER_CHARGES


@<TRIPOS>ATOM
      1 O1        -12.9925   -1.7617   50.7728 O.2     1  ZINC000426567005   -0.4900
      2 C2        -12.9982   -0.8175   51.5357 C.2     1  ZINC000426567005    0.5200
      3 N3        -13.6182    0.3271   51.1867 N.am    1  ZINC000426567005   -0.6000
      4 C4        -14.2503    0.4291   49.9424 C.2     1  ZINC000426567005    0.3000
      5 N5        -13.9938    1.3254   49.0182 N.2     1  ZINC000426567005   -0.3100
      6 N6        -14.8403    1.0835   47.9287 N.pl3   1  ZINC000426567005   -0.4600
      7 C7        -15.6114    0.0164   48.2267 C.2     1  ZINC000426567005    0.1100
      8 C8        -16.6651   -0.5925   47.3378 C.3     1  ZINC000426567005   -0.0300
      9 C9        -16.3524   -0.3021   45.8490 C.3     1  ZINC000426567005   -0.1200
     10 C10       -17.1037   -1.4397   45.1138 C.3     1  ZINC000426567005   -0.1300
     11 C11       -16.9114   -2.6703   46.0241 C.3     1  ZINC000426567005   -0.1300
     12 C12       -16.6325   -2.1316   47.4382 C.3     1  ZINC000426567005   -0.1200
     13 C13       -15.2661   -0.4134   49.4613 C.2     1  ZINC000426567005   -0.2600
     14 C14       -12.3240   -0.9263   52.8628 C.2     1  ZINC000426567005    0.5200
     15 O15       -11.8380   -1.9823   53.2120 O.2     1  ZINC000426567005   -0.4900
     16 N16       -12.2550    0.1481   53.6737 N.am    1  ZINC000426567005   -0.6400
     17 C17       -11.6258    0.0466   54.9121 C.ar    1  ZINC000426567005    0.1700
     18 C18       -10.2775    0.3692   55.0345 C.ar    1  ZINC000426567005   -0.1300
     19 C19        -9.6527    0.2700   56.2571 C.ar    1  ZINC000426567005   -0.0300
     20 C20       -10.3741   -0.1547   57.3764 C.ar    1  ZINC000426567005   -0.1500
     21 C21        -9.7076   -0.2617   58.6887 C.2     1  ZINC000426567005    0.5600
     22 O22        -8.5119   -0.4748   58.7477 O.2     1  ZINC000426567005   -0.5100
     23 N23       -10.4242   -0.1234   59.8217 N.am    1  ZINC000426567005   -0.6700
     24 C24        -9.7927   -0.2248   61.0653 C.ar    1  ZINC000426567005    0.1400
     25 C25        -9.9041    0.8068   61.9886 C.ar    1  ZINC000426567005   -0.1500
     26 C26        -9.2796    0.7033   63.2162 C.ar    1  ZINC000426567005   -0.1000
     27 C27        -8.5439   -0.4258   63.5263 C.ar    1  ZINC000426567005   -0.1300
     28 C28        -8.4306   -1.4545   62.6091 C.ar    1  ZINC000426567005   -0.1000
     29 C29        -9.0574   -1.3598   61.3821 C.ar    1  ZINC000426567005   -0.1200
     30 C30       -11.7281   -0.4775   57.2502 C.ar    1  ZINC000426567005   -0.0600
     31 C31       -12.3482   -0.3716   56.0258 C.ar    1  ZINC000426567005   -0.1400
     32 H32       -13.6264    1.0803   51.7979 H       1  ZINC000426567005    0.4300
     33 H33       -14.8676    1.5937   47.1040 H       1  ZINC000426567005    0.4400
     34 H34       -17.6522   -0.2138   47.6033 H       1  ZINC000426567005    0.1100
     35 H35       -16.7432    0.6720   45.5550 H       1  ZINC000426567005    0.0800
     36 H36       -15.2805   -0.3625   45.6605 H       1  ZINC000426567005    0.0700
     37 H37       -18.1622   -1.1980   45.0178 H       1  ZINC000426567005    0.0700
     38 H38       -16.6617   -1.6175   44.1334 H       1  ZINC000426567005    0.0700
     39 H39       -17.8167   -3.2773   46.0276 H       1  ZINC000426567005    0.0700
     40 H40       -16.0652   -3.2630   45.6767 H       1  ZINC000426567005    0.0700
     41 H41       -15.6509   -2.4629   47.7771 H       1  ZINC000426567005    0.0600
     42 H42       -17.4024   -2.4772   48.1280 H       1  ZINC000426567005    0.0700
     43 H43       -15.6993   -1.2512   49.9871 H       1  ZINC000426567005    0.1700
     44 H44       -12.6435    0.9920   53.3948 H       1  ZINC000426567005    0.4300
     45 H45        -9.7206    0.6974   54.1693 H       1  ZINC000426567005    0.1500
     46 H46        -8.6063    0.5197   56.3513 H       1  ZINC000426567005    0.1400
     47 H47       -11.3781    0.0465   59.7746 H       1  ZINC000426567005    0.4100
     48 H48       -10.4782    1.6890   61.7469 H       1  ZINC000426567005    0.1300
     49 H49        -9.3655    1.5052   63.9344 H       1  ZINC000426567005    0.1300
     50 H50        -8.0565   -0.5043   64.4869 H       1  ZINC000426567005    0.1200
     51 H51        -7.8548   -2.3347   62.8541 H       1  ZINC000426567005    0.1300
     52 H52        -8.9689   -2.1636   60.6662 H       1  ZINC000426567005    0.1300
     53 H53       -12.2882   -0.8064   58.1131 H       1  ZINC000426567005    0.1300
     54 H54       -13.3945   -0.6208   55.9276 H       1  ZINC000426567005    0.1400
@<TRIPOS>BOND
     1     1     2    2
     2     2     3   am
     3     2    14    1
     4     3     4    1
     5     3    32    1
     6     4    13    1
     7     4     5    2
     8     5     6    1
     9     6     7    1
    10     6    33    1
    11     7     8    1
    12     7    13    2
    13     8    12    1
    14     8     9    1
    15     8    34    1
    16     9    10    1
    17     9    35    1
    18     9    36    1
    19    10    11    1
    20    10    37    1
    21    10    38    1
    22    11    12    1
    23    11    39    1
    24    11    40    1
    25    12    41    1
    26    12    42    1
    27    13    43    1
    28    14    15    2
    29    14    16   am
    30    16    17    1
    31    16    44    1
    32    17    31   ar
    33    17    18   ar
    34    18    19   ar
    35    18    45    1
    36    19    20   ar
    37    19    46    1
    38    20    21    1
    39    20    30   ar
    40    21    22    2
    41    21    23   am
    42    23    24    1
    43    23    47    1
    44    24    29   ar
    45    24    25   ar
    46    25    26   ar
    47    25    48    1
    48    26    27   ar
    49    26    49    1
    50    27    28   ar
    51    27    50    1
    52    28    29   ar
    53    28    51    1
    54    29    52    1
    55    30    31   ar
    56    30    53    1
    57    31    54    1
@<TRIPOS>SUBSTRUCTURE
     1 ZINC000426567005        1 TEMP              0 ****  ****    0 ROOT


##########                                Name:    ZINC000430767928
##########                DOCK_Rotatable_Bonds:                   4
##########                         Heavy_Atoms:                  25
##########                    Molecular_Weight:             358.505
##########                DOCK_Rotatable_Bonds:                   4
##########                       Formal_Charge:          -0.0100002
##########                     HBond_Acceptors:                   5
##########                        HBond_Donors:                   0
##########                         Heavy_Atoms:                  25
##########                          Grid_Score:          -29.351248
##########                     Grid_vdw_energy:          -28.989769
##########                      Grid_es_energy:           -0.361479
##########           Internal_energy_repulsive:           20.470074

@<TRIPOS>MOLECULE
ZINC000430767928
 51 55 1 0 0
SMALL
USER_CHARGES


@<TRIPOS>ATOM
      1 O1        -13.8888   -0.8285   54.4494 O.2     1  ZINC000430767928   -0.4600
      2 C2        -13.1090   -1.7455   54.5935 C.2     1  ZINC000430767928    0.5300
      3 C3        -12.9788   -2.6584   55.7889 C.3     1  ZINC000430767928    0.0400
      4 H4        -13.8111   -3.3563   55.8804 H       1  ZINC000430767928    0.1400
      5 C5        -12.7204   -1.8619   57.0845 C.3     1  ZINC000430767928   -0.1100
      6 C6        -11.8461   -2.8421   57.9077 C.3     1  ZINC000430767928   -0.1000
      7 H7        -12.4631   -3.4017   58.6107 H       1  ZINC000430767928    0.1000
      8 C8        -10.7498   -2.0791   58.6540 C.3     1  ZINC000430767928   -0.0800
      9 C9        -11.3905   -1.0855   59.6252 C.3     1  ZINC000430767928   -0.1100
     10 C10       -10.2941   -0.3225   60.3714 C.3     1  ZINC000430767928   -0.1200
     11 C11        -9.4257   -1.3111   61.1521 C.3     1  ZINC000430767928   -0.1200
     12 C12        -8.7850   -2.3046   60.1808 C.3     1  ZINC000430767928   -0.1200
     13 C13        -9.8814   -3.0677   59.4347 C.3     1  ZINC000430767928   -0.1200
     14 C14       -11.2251   -3.7937   56.8622 C.3     1  ZINC000430767928    0.1600
     15 N15       -11.6735   -3.3315   55.5380 N.am    1  ZINC000430767928   -0.6400
     16 C16       -11.4394   -3.1830   54.2303 C.2     1  ZINC000430767928    0.7400
     17 O17       -10.6535   -3.8588   53.5954 O.2     1  ZINC000430767928   -0.5100
     18 N18       -12.1742   -2.1727   53.7158 N.am    1  ZINC000430767928   -0.5800
     19 C19       -11.9784   -1.6059   52.3791 C.3     1  ZINC000430767928    0.2600
     20 H20       -11.2250   -2.1854   51.8455 H       1  ZINC000430767928    0.1200
     21 C21       -13.2786   -1.6513   51.6188 C.2     1  ZINC000430767928   -0.2100
     22 C22       -14.3263   -2.4153   51.9320 C.2     1  ZINC000430767928   -0.1200
     23 C23       -15.4146   -2.2880   51.0862 C.2     1  ZINC000430767928   -0.1400
     24 C24       -15.2507   -1.4208   50.0860 C.2     1  ZINC000430767928   -0.2300
     25 S25       -13.6497   -0.6996   50.1869 S.3     1  ZINC000430767928    0.1700
     26 C26       -11.5112   -0.1543   52.5042 C.3     1  ZINC000430767928   -0.1700
     27 C27       -10.7869    0.2462   53.7912 C.3     1  ZINC000430767928   -0.1700
     28 C28       -10.0037    0.1068   52.4842 C.3     1  ZINC000430767928   -0.1600
     29 H29       -12.1759   -0.9420   56.8718 H       1  ZINC000430767928    0.0800
     30 H30       -13.6560   -1.6491   57.6017 H       1  ZINC000430767928    0.1000
     31 H31       -10.1308   -1.5390   57.9374 H       1  ZINC000430767928    0.0700
     32 H32       -12.0091   -0.3813   59.0689 H       1  ZINC000430767928    0.0600
     33 H33       -12.0093   -1.6256   60.3417 H       1  ZINC000430767928    0.0700
     34 H34        -9.6753    0.2175   59.6547 H       1  ZINC000430767928    0.0600
     35 H35       -10.7506    0.3853   61.0632 H       1  ZINC000430767928    0.0600
     36 H36        -8.6447   -0.7676   61.6836 H       1  ZINC000430767928    0.0600
     37 H37       -10.0446   -1.8512   61.8686 H       1  ZINC000430767928    0.0600
     38 H38        -8.1661   -1.7647   59.4642 H       1  ZINC000430767928    0.0600
     39 H39        -8.1664   -3.0090   60.7370 H       1  ZINC000430767928    0.0600
     40 H40       -10.5003   -3.6077   60.1512 H       1  ZINC000430767928    0.0700
     41 H41        -9.4249   -3.7754   58.7427 H       1  ZINC000430767928    0.0600
     42 H42       -10.1375   -3.7604   56.9268 H       1  ZINC000430767928    0.0900
     43 H43       -11.5783   -4.8115   57.0277 H       1  ZINC000430767928    0.0800
     44 H44       -14.3254   -3.0827   52.7811 H       1  ZINC000430767928    0.1400
     45 H45       -16.3271   -2.8487   51.2253 H       1  ZINC000430767928    0.1400
     46 H46       -15.9895   -1.1936   49.3316 H       1  ZINC000430767928    0.1600
     47 H47       -12.1570    0.5894   52.0375 H       1  ZINC000430767928    0.1200
     48 H48       -10.9563    1.2536   54.1713 H       1  ZINC000430767928    0.1000
     49 H49       -10.6433   -0.5243   54.5485 H       1  ZINC000430767928    0.1000
     50 H50        -9.3449   -0.7555   52.3818 H       1  ZINC000430767928    0.1000
     51 H51        -9.6579    1.0225   52.0046 H       1  ZINC000430767928    0.1000
@<TRIPOS>BOND
     1     1     2    2
     2     2    18   am
     3     2     3    1
     4     3     4    1
     5     3    15    1
     6     3     5    1
     7     5     6    1
     8     5    29    1
     9     5    30    1
    10     6     7    1
    11     6     8    1
    12     6    14    1
    13     8    13    1
    14     8     9    1
    15     8    31    1
    16     9    10    1
    17     9    32    1
    18     9    33    1
    19    10    11    1
    20    10    34    1
    21    10    35    1
    22    11    12    1
    23    11    36    1
    24    11    37    1
    25    12    13    1
    26    12    38    1
    27    12    39    1
    28    13    40    1
    29    13    41    1
    30    14    15    1
    31    14    42    1
    32    14    43    1
    33    15    16   am
    34    16    17    2
    35    16    18   am
    36    18    19    1
    37    19    20    1
    38    19    21    1
    39    19    26    1
    40    21    25    1
    41    21    22    2
    42    22    23    1
    43    22    44    1
    44    23    24    2
    45    23    45    1
    46    24    25    1
    47    24    46    1
    48    26    28    1
    49    26    27    1
    50    26    47    1
    51    27    28    1
    52    27    48    1
    53    27    49    1
    54    28    50    1
    55    28    51    1
@<TRIPOS>SUBSTRUCTURE
     1 ZINC000430767928        1 TEMP              0 ****  ****    0 ROOT


##########                                Name:    ZINC000011498449
##########                DOCK_Rotatable_Bonds:                   5
##########                         Heavy_Atoms:                  21
##########                    Molecular_Weight:             331.198
##########                DOCK_Rotatable_Bonds:                   5
##########                       Formal_Charge:         1.30385e-07
##########                     HBond_Acceptors:                   7
##########                        HBond_Donors:                   1
##########                         Heavy_Atoms:                  21
##########                          Grid_Score:          -29.294636
##########                     Grid_vdw_energy:          -28.512213
##########                      Grid_es_energy:           -0.782423
##########           Internal_energy_repulsive:            9.037615

@<TRIPOS>MOLECULE
ZINC000011498449
 37 38 1 0 0
SMALL
USER_CHARGES


@<TRIPOS>ATOM
      1 C1        -11.5152   -2.8494   52.2383 C.3     1  ZINC000011498449   -0.1500
      2 C2        -12.2707   -3.0567   53.5525 C.3     1  ZINC000011498449    0.0700
      3 H3        -12.6559   -2.1003   53.9058 H       1  ZINC000011498449    0.0600
      4 C4        -11.3206   -3.6452   54.6019 C.3     1  ZINC000011498449    0.0800
      5 N5        -12.1091   -4.0085   55.7900 N.am    1  ZINC000011498449   -0.6100
      6 C6        -11.7382   -3.6012   57.0200 C.2     1  ZINC000011498449    0.5100
      7 O7        -12.4005   -3.9122   57.9872 O.2     1  ZINC000011498449   -0.5300
      8 C8        -10.5005   -2.7591   57.1934 C.3     1  ZINC000011498449    0.1000
      9 N9        -10.5048   -2.1538   58.5275 N.am    1  ZINC000011498449   -0.7200
     10 C10        -9.5768   -1.2318   58.8521 C.2     1  ZINC000011498449    0.5600
     11 O11        -8.7372   -0.9014   58.0375 O.2     1  ZINC000011498449   -0.5100
     12 C12        -9.5801   -0.6227   60.1978 C.ar    1  ZINC000011498449   -0.1300
     13 C13        -8.9859   -1.2899   61.2709 C.ar    1  ZINC000011498449   -0.0600
     14 C14        -8.9916   -0.7161   62.5245 C.ar    1  ZINC000011498449   -0.1100
     15 C15        -9.5852    0.5200   62.7218 C.ar    1  ZINC000011498449    0.0000
     16 Cl16       -9.5873    1.2351   64.3036 Cl      1  ZINC000011498449   -0.0400
     17 C17       -10.1765    1.1877   61.6627 C.ar    1  ZINC000011498449   -0.1100
     18 C18       -10.1729    0.6266   60.4013 C.ar    1  ZINC000011498449    0.0300
     19 Cl19      -10.9143    1.4646   59.0741 Cl      1  ZINC000011498449   -0.0100
     20 C20       -13.3149   -4.8294   55.5954 C.3     1  ZINC000011498449    0.0700
     21 C21       -14.1677   -4.1833   54.4977 C.3     1  ZINC000011498449    0.0500
     22 O22       -13.3579   -3.9606   53.3409 O.3     1  ZINC000011498449   -0.3700
     23 H23       -12.1917   -2.4327   51.4921 H       1  ZINC000011498449    0.0700
     24 H24       -10.6854   -2.1616   52.4009 H       1  ZINC000011498449    0.0800
     25 H25       -11.1302   -3.8062   51.8856 H       1  ZINC000011498449    0.0700
     26 H26       -10.8333   -4.5331   54.1990 H       1  ZINC000011498449    0.0800
     27 H27       -10.5686   -2.9042   54.8728 H       1  ZINC000011498449    0.1000
     28 H28        -9.6159   -3.3861   57.0819 H       1  ZINC000011498449    0.1000
     29 H29       -10.4867   -1.9735   56.4380 H       1  ZINC000011498449    0.1000
     30 H30       -11.1755   -2.4165   59.1772 H       1  ZINC000011498449    0.4100
     31 H31        -8.5230   -2.2537   61.1192 H       1  ZINC000011498449    0.1500
     32 H32        -8.5325   -1.2318   63.3550 H       1  ZINC000011498449    0.1500
     33 H33       -10.6376    2.1511   61.8228 H       1  ZINC000011498449    0.1500
     34 H34       -13.0284   -5.8366   55.2926 H       1  ZINC000011498449    0.0900
     35 H35       -13.8834   -4.8726   56.5244 H       1  ZINC000011498449    0.1000
     36 H36       -14.9943   -4.8460   54.2413 H       1  ZINC000011498449    0.1100
     37 H37       -14.5605   -3.2313   54.8549 H       1  ZINC000011498449    0.0600
@<TRIPOS>BOND
     1     1     2    1
     2     1    23    1
     3     1    24    1
     4     1    25    1
     5     2     3    1
     6     2    22    1
     7     2     4    1
     8     4     5    1
     9     4    26    1
    10     4    27    1
    11     5     6   am
    12     5    20    1
    13     6     7    2
    14     6     8    1
    15     8     9    1
    16     8    28    1
    17     8    29    1
    18     9    10   am
    19     9    30    1
    20    10    11    2
    21    10    12    1
    22    12    18   ar
    23    12    13   ar
    24    13    14   ar
    25    13    31    1
    26    14    15   ar
    27    14    32    1
    28    15    16    1
    29    15    17   ar
    30    17    18   ar
    31    17    33    1
    32    18    19    1
    33    20    21    1
    34    20    34    1
    35    20    35    1
    36    21    22    1
    37    21    36    1
    38    21    37    1
@<TRIPOS>SUBSTRUCTURE
     1 ZINC000011498449        1 TEMP              0 ****  ****    0 ROOT


##########                                Name:    ZINC001076281847
##########                DOCK_Rotatable_Bonds:                   4
##########                         Heavy_Atoms:                  24
##########                    Molecular_Weight:             362.883
##########                DOCK_Rotatable_Bonds:                   4
##########                       Formal_Charge:         -0.00999959
##########                     HBond_Acceptors:                   7
##########                        HBond_Donors:                   0
##########                         Heavy_Atoms:                  24
##########                          Grid_Score:          -29.259378
##########                     Grid_vdw_energy:          -27.604055
##########                      Grid_es_energy:           -1.655323
##########           Internal_energy_repulsive:            7.688030

@<TRIPOS>MOLECULE
ZINC001076281847
 43 46 1 0 0
SMALL
USER_CHARGES


@<TRIPOS>ATOM
      1 C1        -13.8843    1.4527   64.4340 C.3     1  ZINC001076281847   -0.0900
      2 C2        -13.9794    0.7725   63.0926 C.2     1  ZINC001076281847    0.1400
      3 N3        -14.8873    1.1062   62.2230 N.2     1  ZINC001076281847   -0.4600
      4 S4        -14.6613    0.1211   60.8609 S.3     1  ZINC001076281847    0.2500
      5 C5        -13.3176   -0.7447   61.4972 C.2     1  ZINC001076281847   -0.2100
      6 C6        -12.5381   -1.8437   60.8220 C.3     1  ZINC001076281847    0.1200
      7 N7        -11.1414   -1.4209   60.6536 N.3     1  ZINC001076281847   -0.5000
      8 C8        -11.0577   -0.1762   59.8736 C.3     1  ZINC001076281847    0.0300
      9 C9         -9.8368   -0.3143   58.9445 C.3     1  ZINC001076281847   -0.1000
     10 H10        -8.9342    0.1486   59.3434 H       1  ZINC001076281847    0.1200
     11 C11       -10.2328    0.2137   57.5405 C.3     1  ZINC001076281847   -0.1300
     12 C12       -11.1379   -0.9287   57.0172 C.3     1  ZINC001076281847    0.1000
     13 N13       -10.5118   -2.1653   57.5186 N.am    1  ZINC001076281847   -0.6000
     14 C14       -10.6409   -3.3887   56.9683 C.2     1  ZINC001076281847    0.5700
     15 O15       -10.0773   -4.3423   57.4681 O.2     1  ZINC001076281847   -0.4900
     16 C16       -11.4694   -3.5710   55.7546 C.ar    1  ZINC001076281847   -0.0800
     17 C17       -10.8778   -3.7884   54.5065 C.ar    1  ZINC001076281847   -0.1800
     18 C18       -11.6885   -3.9540   53.4004 C.ar    1  ZINC001076281847    0.1000
     19 N19       -13.0013   -3.9092   53.5097 N.ar    1  ZINC001076281847   -0.4500
     20 C20       -13.6008   -3.7068   54.6657 C.ar    1  ZINC001076281847    0.1100
     21 C21       -12.8668   -3.5363   55.8256 C.ar    1  ZINC001076281847   -0.0500
     22 Cl22      -13.6661   -3.2708   57.3436 Cl      1  ZINC001076281847   -0.0100
     23 C23        -9.7104   -1.8474   58.7342 C.3     1  ZINC001076281847    0.1000
     24 H24        -8.6726   -2.1597   58.6170 H       1  ZINC001076281847    0.1100
     25 C25       -10.3516   -2.4653   59.9844 C.3     1  ZINC001076281847    0.0200
     26 C26       -13.1050   -0.2282   62.7277 C.2     1  ZINC001076281847   -0.1800
     27 H27       -13.1631    2.2681   64.3776 H       1  ZINC001076281847    0.0700
     28 H28       -14.8611    1.8499   64.7101 H       1  ZINC001076281847    0.0800
     29 H29       -13.5599    0.7320   65.1847 H       1  ZINC001076281847    0.0900
     30 H30       -12.5738   -2.7440   61.4354 H       1  ZINC001076281847    0.1000
     31 H31       -12.9750   -2.0518   59.8454 H       1  ZINC001076281847    0.1000
     32 H32       -11.9636   -0.0456   59.2817 H       1  ZINC001076281847    0.0600
     33 H33       -10.9230    0.6742   60.5421 H       1  ZINC001076281847    0.0900
     34 H34       -10.7890    1.1478   57.6177 H       1  ZINC001076281847    0.0900
     35 H35        -9.3538    0.3360   56.9076 H       1  ZINC001076281847    0.0800
     36 H36       -12.1472   -0.8257   57.4156 H       1  ZINC001076281847    0.0800
     37 H37       -11.1574   -0.9282   55.9274 H       1  ZINC001076281847    0.0800
     38 H38        -9.8028   -3.8261   54.4086 H       1  ZINC001076281847    0.1800
     39 H39       -11.2403   -4.1220   52.4323 H       1  ZINC001076281847    0.1700
     40 H40       -14.6795   -3.6778   54.7086 H       1  ZINC001076281847    0.1700
     41 H41        -9.5745   -2.8439   60.6484 H       1  ZINC001076281847    0.1000
     42 H42       -11.0165   -3.2788   59.6938 H       1  ZINC001076281847    0.0700
     43 H43       -12.3158   -0.5771   63.3772 H       1  ZINC001076281847    0.1400
@<TRIPOS>BOND
     1     1     2    1
     2     1    27    1
     3     1    28    1
     4     1    29    1
     5     2    26    1
     6     2     3    2
     7     3     4    1
     8     4     5    1
     9     5     6    1
    10     5    26    2
    11     6     7    1
    12     6    30    1
    13     6    31    1
    14     7    25    1
    15     7     8    1
    16     8     9    1
    17     8    32    1
    18     8    33    1
    19     9    10    1
    20     9    23    1
    21     9    11    1
    22    11    12    1
    23    11    34    1
    24    11    35    1
    25    12    13    1
    26    12    36    1
    27    12    37    1
    28    13    14   am
    29    13    23    1
    30    14    15    2
    31    14    16    1
    32    16    21   ar
    33    16    17   ar
    34    17    18   ar
    35    17    38    1
    36    18    19   ar
    37    18    39    1
    38    19    20   ar
    39    20    21   ar
    40    20    40    1
    41    21    22    1
    42    23    24    1
    43    23    25    1
    44    25    41    1
    45    25    42    1
    46    26    43    1
@<TRIPOS>SUBSTRUCTURE
     1 ZINC001076281847        1 TEMP              0 ****  ****    0 ROOT


##########                                Name:    ZINC000119180466
##########                DOCK_Rotatable_Bonds:                  10
##########                         Heavy_Atoms:                  23
##########                    Molecular_Weight:             350.405
##########                DOCK_Rotatable_Bonds:                  10
##########                       Formal_Charge:           0.0299997
##########                     HBond_Acceptors:                   8
##########                        HBond_Donors:                   3
##########                         Heavy_Atoms:                  23
##########                          Grid_Score:          -29.253414
##########                     Grid_vdw_energy:          -29.334417
##########                      Grid_es_energy:            0.081003
##########           Internal_energy_repulsive:           12.698545

@<TRIPOS>MOLECULE
ZINC000119180466
 44 44 1 0 0
SMALL
USER_CHARGES


@<TRIPOS>ATOM
      1 C1         -8.5387   -1.0919   52.2208 C.3     1  ZINC000119180466   -0.1300
      2 S2        -10.1380   -1.9454   52.2870 S.3     1  ZINC000119180466   -0.2200
      3 C3        -11.2875   -0.6223   52.7548 C.3     1  ZINC000119180466   -0.0700
      4 H4        -11.2260    0.1867   52.0269 H       1  ZINC000119180466    0.1100
      5 C5        -10.9165   -0.0906   54.1406 C.3     1  ZINC000119180466    0.0800
      6 O6        -11.8010    0.9743   54.4947 O.3     1  ZINC000119180466   -0.5600
      7 C7        -12.7144   -1.1736   52.7853 C.3     1  ZINC000119180466    0.1900
      8 H8        -13.3495   -0.5057   53.3673 H       1  ZINC000119180466    0.1000
      9 C9        -13.2532   -1.2733   51.3568 C.3     1  ZINC000119180466   -0.1700
     10 N10       -12.7111   -2.5032   53.4000 N.am    1  ZINC000119180466   -0.7200
     11 C11       -13.1221   -2.6576   54.6743 C.2     1  ZINC000119180466    0.7100
     12 O12       -13.4969   -1.6933   55.3132 O.2     1  ZINC000119180466   -0.6000
     13 N13       -13.1176   -3.8807   55.2404 N.am    1  ZINC000119180466   -0.7400
     14 C14       -13.5659   -4.0487   56.6250 C.3     1  ZINC000119180466    0.2000
     15 H15       -14.4404   -3.4226   56.8022 H       1  ZINC000119180466    0.1000
     16 C16       -13.9304   -5.5145   56.8687 C.3     1  ZINC000119180466   -0.1600
     17 C17       -12.4591   -3.6433   57.5640 C.ar    1  ZINC000119180466   -0.0600
     18 C18       -12.6777   -2.6530   58.5034 C.ar    1  ZINC000119180466   -0.1100
     19 C19       -11.6623   -2.2813   59.3647 C.ar    1  ZINC000119180466   -0.0600
     20 C20       -10.4287   -2.9000   59.2868 C.ar    1  ZINC000119180466   -0.1800
     21 C21        -9.3217   -2.4943   60.2254 C.3     1  ZINC000119180466    0.5100
     22 F22        -8.4429   -3.5686   60.4020 F       1  ZINC000119180466   -0.1800
     23 F23        -8.6265   -1.4074   59.6846 F       1  ZINC000119180466   -0.1800
     24 F24        -9.8677   -2.1306   61.4610 F       1  ZINC000119180466   -0.1800
     25 C25       -10.2105   -3.8912   58.3483 C.ar    1  ZINC000119180466   -0.0600
     26 C26       -11.2270   -4.2657   57.4896 C.ar    1  ZINC000119180466   -0.1100
     27 H27        -8.3128   -0.6671   53.1989 H       1  ZINC000119180466    0.0800
     28 H28        -7.7592   -1.8019   51.9442 H       1  ZINC000119180466    0.1000
     29 H29        -8.5830   -0.2939   51.4796 H       1  ZINC000119180466    0.0800
     30 H30       -11.0030   -0.8935   54.8728 H       1  ZINC000119180466    0.0500
     31 H31        -9.8910    0.2785   54.1256 H       1  ZINC000119180466    0.0600
     32 H32       -11.7768    1.7247   53.8853 H       1  ZINC000119180466    0.3800
     33 H33       -12.6180   -1.9411   50.7747 H       1  ZINC000119180466    0.0700
     34 H34       -14.2697   -1.6661   51.3785 H       1  ZINC000119180466    0.0700
     35 H35       -13.2556   -0.2840   50.8993 H       1  ZINC000119180466    0.0700
     36 H36       -12.4133   -3.2727   52.8900 H       1  ZINC000119180466    0.4100
     37 H37       -12.8174   -4.6497   54.7311 H       1  ZINC000119180466    0.4000
     38 H38       -14.2639   -5.6395   57.8988 H       1  ZINC000119180466    0.0700
     39 H39       -14.7309   -5.8077   56.1894 H       1  ZINC000119180466    0.0700
     40 H40       -13.0559   -6.1406   56.6914 H       1  ZINC000119180466    0.0600
     41 H41       -13.6415   -2.1697   58.5642 H       1  ZINC000119180466    0.1300
     42 H42       -11.8329   -1.5071   60.0982 H       1  ZINC000119180466    0.1400
     43 H43        -9.2468   -4.3749   58.2877 H       1  ZINC000119180466    0.1400
     44 H44       -11.0567   -5.0401   56.7563 H       1  ZINC000119180466    0.1400
@<TRIPOS>BOND
     1     1     2    1
     2     1    27    1
     3     1    28    1
     4     1    29    1
     5     2     3    1
     6     3     4    1
     7     3     5    1
     8     3     7    1
     9     5     6    1
    10     5    30    1
    11     5    31    1
    12     6    32    1
    13     7     8    1
    14     7     9    1
    15     7    10    1
    16     9    33    1
    17     9    34    1
    18     9    35    1
    19    10    11   am
    20    10    36    1
    21    11    12    2
    22    11    13   am
    23    13    14    1
    24    13    37    1
    25    14    15    1
    26    14    16    1
    27    14    17    1
    28    16    38    1
    29    16    39    1
    30    16    40    1
    31    17    26   ar
    32    17    18   ar
    33    18    19   ar
    34    18    41    1
    35    19    20   ar
    36    19    42    1
    37    20    21    1
    38    20    25   ar
    39    21    22    1
    40    21    23    1
    41    21    24    1
    42    25    26   ar
    43    25    43    1
    44    26    44    1
@<TRIPOS>SUBSTRUCTURE
     1 ZINC000119180466        1 TEMP              0 ****  ****    0 ROOT


##########                                Name:    ZINC000956479608
##########                DOCK_Rotatable_Bonds:                   5
##########                         Heavy_Atoms:                  25
##########                    Molecular_Weight:             345.442
##########                DOCK_Rotatable_Bonds:                   5
##########                       Formal_Charge:          -0.0100001
##########                     HBond_Acceptors:                   6
##########                        HBond_Donors:                   1
##########                         Heavy_Atoms:                  25
##########                          Grid_Score:          -29.244171
##########                     Grid_vdw_energy:          -28.794413
##########                      Grid_es_energy:           -0.449759
##########           Internal_energy_repulsive:           31.650862

@<TRIPOS>MOLECULE
ZINC000956479608
 52 55 1 0 0
SMALL
USER_CHARGES


@<TRIPOS>ATOM
      1 C1        -11.0281    1.2313   64.0523 C.3     1  ZINC000956479608   -0.0900
      2 C2        -12.1740    0.4510   63.4615 C.2     1  ZINC000956479608   -0.1100
      3 C3        -12.1336   -0.4782   62.4580 C.2     1  ZINC000956479608   -0.1000
      4 C4        -10.9412   -0.9326   61.7180 C.2     1  ZINC000956479608    0.6100
      5 O5         -9.8301   -0.6486   62.1219 O.2     1  ZINC000956479608   -0.5000
      6 N6        -11.0834   -1.6625   60.5939 N.am    1  ZINC000956479608   -0.7100
      7 C7         -9.8992   -2.1123   59.8579 C.3     1  ZINC000956479608    0.1800
      8 C8         -9.0410   -2.9969   60.7645 C.3     1  ZINC000956479608   -0.1700
      9 C9        -10.3363   -2.9139   58.6297 C.3     1  ZINC000956479608   -0.1500
     10 C10       -11.2235   -2.0363   57.7413 C.3     1  ZINC000956479608    0.1100
     11 N11       -10.4993   -0.7972   57.4268 N.am    1  ZINC000956479608   -0.6100
     12 C12       -10.3361   -0.4028   56.1484 C.2     1  ZINC000956479608    0.5500
     13 O13        -9.7351    0.6213   55.9018 O.2     1  ZINC000956479608   -0.5400
     14 C14       -10.9004   -1.2344   55.0254 C.3     1  ZINC000956479608   -0.1900
     15 H15       -10.3461   -2.1423   54.7878 H       1  ZINC000956479608    0.1200
     16 C16       -12.4150   -1.2731   54.8703 C.3     1  ZINC000956479608   -0.1100
     17 H17       -12.9824   -0.6767   55.5848 H       1  ZINC000956479608    0.1000
     18 C18       -13.0984   -2.5600   54.4347 C.3     1  ZINC000956479608   -0.0900
     19 C19       -12.4145   -3.1365   53.1950 C.3     1  ZINC000956479608   -0.1200
     20 C20       -12.3888   -2.0586   52.1052 C.3     1  ZINC000956479608   -0.1200
     21 C21       -11.3272   -1.0212   52.4711 C.3     1  ZINC000956479608   -0.0900
     22 C22       -11.5799   -0.4924   53.8641 C.3     1  ZINC000956479608   -0.1100
     23 H23       -11.6345    0.5929   53.9492 H       1  ZINC000956479608    0.1100
     24 C24        -9.9569    0.0041   58.5324 C.3     1  ZINC000956479608    0.1000
     25 C25        -9.0838   -0.8964   59.4120 C.3     1  ZINC000956479608   -0.1400
     26 O26       -13.4020   -0.8945   62.2830 O.3     1  ZINC000956479608    0.1200
     27 N27       -14.1595   -0.3364   63.0420 N.2     1  ZINC000956479608   -0.3400
     28 C28       -13.5398    0.5039   63.8186 C.2     1  ZINC000956479608   -0.0100
     29 H29       -10.6004    0.6739   64.8857 H       1  ZINC000956479608    0.0800
     30 H30       -10.2645    1.3886   63.2905 H       1  ZINC000956479608    0.0900
     31 H31       -11.3905    2.1958   64.4082 H       1  ZINC000956479608    0.0800
     32 H32       -11.9697   -1.8902   60.2723 H       1  ZINC000956479608    0.4100
     33 H33        -9.6218   -3.8627   61.0828 H       1  ZINC000956479608    0.0800
     34 H34        -8.1600   -3.3316   60.2171 H       1  ZINC000956479608    0.0700
     35 H35        -8.7300   -2.4265   61.6398 H       1  ZINC000956479608    0.0600
     36 H36        -9.4564   -3.2279   58.0682 H       1  ZINC000956479608    0.0800
     37 H37       -10.8970   -3.7924   58.9492 H       1  ZINC000956479608    0.1000
     38 H38       -11.4563   -2.5677   56.8186 H       1  ZINC000956479608    0.0900
     39 H39       -12.1461   -1.7962   58.2698 H       1  ZINC000956479608    0.0600
     40 H40       -13.0462   -3.2871   55.2450 H       1  ZINC000956479608    0.0700
     41 H41       -14.1435   -2.3524   54.2052 H       1  ZINC000956479608    0.0700
     42 H42       -11.3946   -3.4305   53.4430 H       1  ZINC000956479608    0.0600
     43 H43       -12.9717   -4.0032   52.8394 H       1  ZINC000956479608    0.0700
     44 H44       -12.1407   -2.5136   51.1462 H       1  ZINC000956479608    0.0700
     45 H45       -13.3649   -1.5774   52.0434 H       1  ZINC000956479608    0.0700
     46 H46       -10.3416   -1.4855   52.4375 H       1  ZINC000956479608    0.0700
     47 H47       -11.3621   -0.2005   51.7546 H       1  ZINC000956479608    0.0700
     48 H48        -9.3539    0.8188   58.1316 H       1  ZINC000956479608    0.0900
     49 H49       -10.7762    0.4105   59.1254 H       1  ZINC000956479608    0.0700
     50 H50        -8.7531   -0.3389   60.2882 H       1  ZINC000956479608    0.0900
     51 H51        -8.2157   -1.2294   58.8430 H       1  ZINC000956479608    0.0900
     52 H52       -13.9839    1.1261   64.5814 H       1  ZINC000956479608    0.2000
@<TRIPOS>BOND
     1     1     2    1
     2     1    29    1
     3     1    30    1
     4     1    31    1
     5     2    28    1
     6     2     3    2
     7     3     4    1
     8     3    26    1
     9     4     5    2
    10     4     6   am
    11     6     7    1
    12     6    32    1
    13     7    25    1
    14     7     8    1
    15     7     9    1
    16     8    33    1
    17     8    34    1
    18     8    35    1
    19     9    10    1
    20     9    36    1
    21     9    37    1
    22    10    11    1
    23    10    38    1
    24    10    39    1
    25    11    12   am
    26    11    24    1
    27    12    13    2
    28    12    14    1
    29    14    15    1
    30    14    22    1
    31    14    16    1
    32    16    17    1
    33    16    22    1
    34    16    18    1
    35    18    19    1
    36    18    40    1
    37    18    41    1
    38    19    20    1
    39    19    42    1
    40    19    43    1
    41    20    21    1
    42    20    44    1
    43    20    45    1
    44    21    22    1
    45    21    46    1
    46    21    47    1
    47    22    23    1
    48    24    25    1
    49    24    48    1
    50    24    49    1
    51    25    50    1
    52    25    51    1
    53    26    27    1
    54    27    28    2
    55    28    52    1
@<TRIPOS>SUBSTRUCTURE
     1 ZINC000956479608        1 TEMP              0 ****  ****    0 ROOT


##########                                Name:    ZINC001039666729
##########                DOCK_Rotatable_Bonds:                   3
##########                         Heavy_Atoms:                  25
##########                    Molecular_Weight:             344.376
##########                DOCK_Rotatable_Bonds:                   3
##########                       Formal_Charge:          -0.0199998
##########                     HBond_Acceptors:                  10
##########                        HBond_Donors:                   2
##########                         Heavy_Atoms:                  25
##########                          Grid_Score:          -29.242546
##########                     Grid_vdw_energy:          -28.286625
##########                      Grid_es_energy:           -0.955920
##########           Internal_energy_repulsive:           34.291782

@<TRIPOS>MOLECULE
ZINC001039666729
 45 47 1 0 0
SMALL
USER_CHARGES


@<TRIPOS>ATOM
      1 C1        -11.8386   -3.6363   52.8462 C.3     1  ZINC001039666729   -0.1100
      2 C2        -11.5462   -2.4177   53.6832 C.ar    1  ZINC001039666729    0.2200
      3 C3        -10.7914   -1.3766   53.1666 C.ar    1  ZINC001039666729   -0.3000
      4 C4        -10.5457   -0.2739   53.9699 C.ar    1  ZINC001039666729    0.1900
      5 N5        -11.0358   -0.2484   55.1981 N.ar    1  ZINC001039666729   -0.5800
      6 C6        -11.7540   -1.2608   55.6619 C.ar    1  ZINC001039666729    0.6000
      7 N7        -12.2520   -1.2008   56.9519 N.pl3   1  ZINC001039666729   -0.5900
      8 C8        -13.3075   -2.1194   57.4781 C.3     1  ZINC001039666729    0.1200
      9 C9        -12.6320   -3.4369   57.8649 C.3     1  ZINC001039666729    0.0900
     10 N10       -11.6599   -3.1632   58.9525 N.am    1  ZINC001039666729   -0.7400
     11 C11       -10.3638   -3.0210   58.5319 C.2     1  ZINC001039666729    0.5200
     12 O12       -10.0787   -3.1180   57.3571 O.2     1  ZINC001039666729   -0.5200
     13 C13        -9.3002   -2.7409   59.5622 C.3     1  ZINC001039666729   -0.1500
     14 C14        -8.6377   -1.3955   59.2587 C.3     1  ZINC001039666729    0.1100
     15 N15        -9.6941   -0.3514   59.2201 N.am    1  ZINC001039666729   -0.6100
     16 C16       -10.0969    0.3171   60.3188 C.2     1  ZINC001039666729    0.6100
     17 O17       -10.9670    1.1615   60.2317 O.2     1  ZINC001039666729   -0.5200
     18 C18        -9.4807    0.0236   61.6299 C.2     1  ZINC001039666729   -0.0400
     19 N19        -8.8934   -1.1025   62.0051 N.2     1  ZINC001039666729   -0.2500
     20 N20        -8.4847   -0.9660   63.2167 N.pl3   1  ZINC001039666729   -0.2300
     21 N21        -8.7707    0.2008   63.6730 N.2     1  ZINC001039666729   -0.2800
     22 C22        -9.3893    0.8853   62.7412 C.2     1  ZINC001039666729    0.0400
     23 C23       -10.2706   -0.1028   57.8733 C.3     1  ZINC001039666729    0.1100
     24 C24       -11.7896   -0.2142   57.9753 C.3     1  ZINC001039666729    0.1300
     25 N25       -12.0115   -2.3265   54.9183 N.ar    1  ZINC001039666729   -0.5700
     26 H26       -12.7629   -3.4816   52.2896 H       1  ZINC001039666729    0.0800
     27 H27       -11.0179   -3.8033   52.1485 H       1  ZINC001039666729    0.0800
     28 H28       -11.9464   -4.5055   53.4951 H       1  ZINC001039666729    0.0800
     29 H29       -10.4028   -1.4235   52.1600 H       1  ZINC001039666729    0.1400
     30 H30        -9.9608    0.5541   53.5976 H       1  ZINC001039666729    0.1600
     31 H31       -13.7795   -1.6755   58.3546 H       1  ZINC001039666729    0.0800
     32 H32       -14.0564   -2.3011   56.7071 H       1  ZINC001039666729    0.0900
     33 H33       -13.3829   -4.1459   58.2134 H       1  ZINC001039666729    0.0800
     34 H34       -12.1102   -3.8492   57.0012 H       1  ZINC001039666729    0.1000
     35 H35       -11.9207   -3.0911   59.8840 H       1  ZINC001039666729    0.4100
     36 H36        -9.7539   -2.7071   60.5528 H       1  ZINC001039666729    0.0800
     37 H37        -8.5493   -3.5305   59.5333 H       1  ZINC001039666729    0.1100
     38 H38        -7.9147   -1.1579   60.0390 H       1  ZINC001039666729    0.1100
     39 H39        -8.1338   -1.4439   58.2933 H       1  ZINC001039666729    0.0900
     40 H40        -8.0217   -1.6538   63.7202 H       1  ZINC001039666729    0.4700
     41 H41        -9.7589    1.8976   62.8130 H       1  ZINC001039666729    0.2100
     42 H42        -9.9947    0.8958   57.5344 H       1  ZINC001039666729    0.0800
     43 H43        -9.8953   -0.8464   57.1703 H       1  ZINC001039666729    0.1200
     44 H44       -12.2447    0.7564   57.7779 H       1  ZINC001039666729    0.0700
     45 H45       -12.0681   -0.5571   58.9718 H       1  ZINC001039666729    0.0900
@<TRIPOS>BOND
     1     1     2    1
     2     1    26    1
     3     1    27    1
     4     1    28    1
     5     2    25   ar
     6     2     3   ar
     7     3     4   ar
     8     3    29    1
     9     4     5   ar
    10     4    30    1
    11     5     6   ar
    12     6     7    1
    13     6    25   ar
    14     7    24    1
    15     7     8    1
    16     8     9    1
    17     8    31    1
    18     8    32    1
    19     9    10    1
    20     9    33    1
    21     9    34    1
    22    10    11   am
    23    10    35    1
    24    11    12    2
    25    11    13    1
    26    13    14    1
    27    13    36    1
    28    13    37    1
    29    14    15    1
    30    14    38    1
    31    14    39    1
    32    15    16   am
    33    15    23    1
    34    16    17    2
    35    16    18    1
    36    18    22    1
    37    18    19    2
    38    19    20    1
    39    20    21    1
    40    20    40    1
    41    21    22    2
    42    22    41    1
    43    23    24    1
    44    23    42    1
    45    23    43    1
    46    24    44    1
    47    24    45    1
@<TRIPOS>SUBSTRUCTURE
     1 ZINC001039666729        1 TEMP              0 ****  ****    0 ROOT


##########                                Name:    ZINC001173835973
##########                DOCK_Rotatable_Bonds:                   4
##########                         Heavy_Atoms:                  26
##########                    Molecular_Weight:             343.388
##########                DOCK_Rotatable_Bonds:                   4
##########                       Formal_Charge:           -0.010001
##########                     HBond_Acceptors:                   6
##########                        HBond_Donors:                   4
##########                         Heavy_Atoms:                  26
##########                          Grid_Score:          -29.220701
##########                     Grid_vdw_energy:          -28.015972
##########                      Grid_es_energy:           -1.204729
##########           Internal_energy_repulsive:            6.220336

@<TRIPOS>MOLECULE
ZINC001173835973
 43 46 1 0 0
SMALL
USER_CHARGES


@<TRIPOS>ATOM
      1 C1         -8.2870    0.2892   52.2839 C.3     1  ZINC001173835973   -0.1700
      2 C2         -9.2506   -0.8224   52.6108 C.2     1  ZINC001173835973    0.5100
      3 O3         -8.9862   -1.9649   52.3011 O.2     1  ZINC001173835973   -0.5200
      4 N4        -10.4062   -0.5471   53.2475 N.am    1  ZINC001173835973   -0.6800
      5 C5        -11.3008   -1.5792   53.5511 C.ar    1  ZINC001173835973    0.1800
      6 C6        -12.3083   -1.9121   52.6546 C.ar    1  ZINC001173835973   -0.1900
      7 C7        -13.1926   -2.9314   52.9533 C.ar    1  ZINC001173835973   -0.0600
      8 C8        -13.0777   -3.6229   54.1433 C.ar    1  ZINC001173835973   -0.1900
      9 C9        -12.0716   -3.2948   55.0450 C.ar    1  ZINC001173835973    0.2200
     10 N10       -11.9559   -3.9941   56.2480 N.pl3   1  ZINC001173835973   -0.6900
     11 C11       -12.0443   -3.3103   57.4662 C.ar    1  ZINC001173835973    0.0400
     12 C12       -10.9061   -2.9819   58.1420 C.ar    1  ZINC001173835973    0.2400
     13 N13        -9.6587   -3.3311   57.6122 N.pl3   1  ZINC001173835973   -0.8600
     14 C14       -10.9789   -2.2690   59.4127 C.ar    1  ZINC001173835973   -0.1100
     15 C15        -9.8104   -1.9277   60.1129 C.ar    1  ZINC001173835973   -0.0600
     16 C16        -9.9384   -1.2587   61.3001 C.ar    1  ZINC001173835973   -0.1700
     17 C17       -11.2027   -0.9369   61.7792 C.ar    1  ZINC001173835973    0.1200
     18 N18       -12.2909   -1.2598   61.1180 N.ar    1  ZINC001173835973   -0.4400
     19 C19       -12.2313   -1.9105   59.9583 C.ar    1  ZINC001173835973    0.1900
     20 C20       -13.4562   -2.2638   59.2311 C.ar    1  ZINC001173835973    0.1300
     21 N21       -14.6534   -1.9416   59.7155 N.ar    1  ZINC001173835973   -0.4400
     22 C22       -15.7578   -2.2516   59.0752 C.ar    1  ZINC001173835973    0.1000
     23 C23       -15.7292   -2.9300   57.8628 C.ar    1  ZINC001173835973   -0.1500
     24 C24       -14.5287   -3.2894   57.3121 C.ar    1  ZINC001173835973   -0.0700
     25 C25       -13.3530   -2.9492   58.0004 C.ar    1  ZINC001173835973   -0.0400
     26 C26       -11.1789   -2.2750   54.7453 C.ar    1  ZINC001173835973   -0.1900
     27 H27        -7.4167   -0.1229   51.7732 H       1  ZINC001173835973    0.1000
     28 H28        -8.7774    1.0165   51.6368 H       1  ZINC001173835973    0.0900
     29 H29        -7.9702    0.7780   53.2051 H       1  ZINC001173835973    0.0900
     30 H30       -10.6176    0.3665   53.4953 H       1  ZINC001173835973    0.4100
     31 H31       -12.4010   -1.3735   51.7231 H       1  ZINC001173835973    0.1200
     32 H32       -13.9754   -3.1876   52.2547 H       1  ZINC001173835973    0.1200
     33 H33       -13.7703   -4.4188   54.3738 H       1  ZINC001173835973    0.1200
     34 H34       -11.8143   -4.9536   56.2396 H       1  ZINC001173835973    0.4000
     35 H35        -9.6012   -3.7320   56.7308 H       1  ZINC001173835973    0.4100
     36 H36        -8.8518   -3.1721   58.1264 H       1  ZINC001173835973    0.4000
     37 H37        -8.8363   -2.1866   59.7249 H       1  ZINC001173835973    0.1400
     38 H38        -9.0593   -0.9820   61.8633 H       1  ZINC001173835973    0.1400
     39 H39       -11.2926   -0.4092   62.7171 H       1  ZINC001173835973    0.1700
     40 H40       -16.7103   -1.9729   59.5012 H       1  ZINC001173835973    0.1600
     41 H41       -16.6516   -3.1734   57.3565 H       1  ZINC001173835973    0.1400
     42 H42       -14.4867   -3.8174   56.3708 H       1  ZINC001173835973    0.1400
     43 H43       -10.3962   -2.0183   55.4437 H       1  ZINC001173835973    0.1400
@<TRIPOS>BOND
     1     1     2    1
     2     1    27    1
     3     1    28    1
     4     1    29    1
     5     2     3    2
     6     2     4   am
     7     4     5    1
     8     4    30    1
     9     5    26   ar
    10     5     6   ar
    11     6     7   ar
    12     6    31    1
    13     7     8   ar
    14     7    32    1
    15     8     9   ar
    16     8    33    1
    17     9    10    1
    18     9    26   ar
    19    10    11    1
    20    10    34    1
    21    11    25   ar
    22    11    12   ar
    23    12    13    1
    24    12    14   ar
    25    13    35    1
    26    13    36    1
    27    14    19   ar
    28    14    15   ar
    29    15    16   ar
    30    15    37    1
    31    16    17   ar
    32    16    38    1
    33    17    18   ar
    34    17    39    1
    35    18    19   ar
    36    19    20   ar
    37    20    25   ar
    38    20    21   ar
    39    21    22   ar
    40    22    23   ar
    41    22    40    1
    42    23    24   ar
    43    23    41    1
    44    24    25   ar
    45    24    42    1
    46    26    43    1
@<TRIPOS>SUBSTRUCTURE
     1 ZINC001173835973        1 TEMP              0 ****  ****    0 ROOT


##########                                Name:    ZINC001091652821
##########                DOCK_Rotatable_Bonds:                   4
##########                         Heavy_Atoms:                  24
##########                    Molecular_Weight:             345.465
##########                DOCK_Rotatable_Bonds:                   4
##########                       Formal_Charge:          -0.0199997
##########                     HBond_Acceptors:                   6
##########                        HBond_Donors:                   0
##########                         Heavy_Atoms:                  24
##########                          Grid_Score:          -29.212225
##########                     Grid_vdw_energy:          -29.021320
##########                      Grid_es_energy:           -0.190905
##########           Internal_energy_repulsive:            4.690816

@<TRIPOS>MOLECULE
ZINC001091652821
 47 50 1 0 0
SMALL
USER_CHARGES


@<TRIPOS>ATOM
      1 C1        -14.9808    0.1909   51.3988 C.3     1  ZINC001091652821   -0.1000
      2 C2        -13.9147   -0.7793   51.8383 C.2     1  ZINC001091652821   -0.1200
      3 C3        -12.6161   -0.5837   51.5820 C.2     1  ZINC001091652821   -0.2400
      4 S4        -11.6714   -1.8583   52.2097 S.3     1  ZINC001091652821    0.2100
      5 C5        -13.0988   -2.6722   52.8356 C.2     1  ZINC001091652821   -0.2700
      6 C6        -13.1014   -3.9431   53.5661 C.2     1  ZINC001091652821    0.6100
      7 O7        -12.6912   -4.9549   53.0284 O.2     1  ZINC001091652821   -0.5200
      8 N8        -13.5582   -3.9909   54.8332 N.am    1  ZINC001091652821   -0.6200
      9 C9        -13.6221   -5.1781   55.7013 C.3     1  ZINC001091652821    0.0900
     10 C10       -13.4271   -4.6744   57.1408 C.3     1  ZINC001091652821   -0.0900
     11 H11       -14.0693   -5.1991   57.8483 H       1  ZINC001091652821    0.1100
     12 C12       -11.9352   -4.7890   57.5176 C.3     1  ZINC001091652821    0.0400
     13 N13       -11.6219   -3.5120   58.2083 N.3     1  ZINC001091652821   -0.5000
     14 C14       -10.1772   -3.2465   58.1946 C.3     1  ZINC001091652821    0.1200
     15 C15        -9.8765   -2.0579   59.0706 C.2     1  ZINC001091652821    0.0000
     16 C16        -9.9788   -0.7661   58.7167 C.2     1  ZINC001091652821   -0.0800
     17 O17        -9.6189   -0.0318   59.7876 O.3     1  ZINC001091652821   -0.2000
     18 C18        -9.3032   -0.8788   60.7763 C.2     1  ZINC001091652821    0.1900
     19 C19        -8.8455   -0.4847   62.1570 C.3     1  ZINC001091652821   -0.0600
     20 N20        -9.4628   -2.0990   60.3496 N.2     1  ZINC001091652821   -0.4700
     21 C21       -12.3591   -2.4853   57.4283 C.3     1  ZINC001091652821    0.0400
     22 C22       -13.7346   -3.1556   57.0873 C.3     1  ZINC001091652821   -0.0700
     23 C23       -14.8387   -2.7261   58.0555 C.3     1  ZINC001091652821   -0.1300
     24 C24       -14.0848   -2.8649   55.6217 C.3     1  ZINC001091652821    0.1200
     25 C25       -14.2048   -1.9273   52.5369 C.2     1  ZINC001091652821   -0.0500
     26 H26       -15.1360    0.9375   52.1777 H       1  ZINC001091652821    0.0700
     27 H27       -14.6659    0.6848   50.4796 H       1  ZINC001091652821    0.0700
     28 H28       -15.9116   -0.3478   51.2214 H       1  ZINC001091652821    0.0700
     29 H29       -12.2189    0.2672   51.0485 H       1  ZINC001091652821    0.1700
     30 H30       -14.5940   -5.6617   55.6026 H       1  ZINC001091652821    0.0800
     31 H31       -12.8277   -5.8766   55.4386 H       1  ZINC001091652821    0.0800
     32 H32       -11.7766   -5.6328   58.1891 H       1  ZINC001091652821    0.0800
     33 H33       -11.3241   -4.8957   56.6213 H       1  ZINC001091652821    0.0500
     34 H34        -9.6438   -4.1194   58.5709 H       1  ZINC001091652821    0.0500
     35 H35        -9.8561   -3.0365   57.1743 H       1  ZINC001091652821    0.1000
     36 H36       -10.2907   -0.3873   57.7545 H       1  ZINC001091652821    0.2100
     37 H37        -8.8092    0.6022   62.2314 H       1  ZINC001091652821    0.0900
     38 H38        -9.5437   -0.8763   62.8968 H       1  ZINC001091652821    0.1000
     39 H39        -7.8526   -0.8948   62.3416 H       1  ZINC001091652821    0.1000
     40 H40       -12.5203   -1.5924   58.0325 H       1  ZINC001091652821    0.0900
     41 H41       -11.8138   -2.2356   56.5181 H       1  ZINC001091652821    0.0500
     42 H42       -14.9781   -1.6469   57.9917 H       1  ZINC001091652821    0.0600
     43 H43       -15.7690   -3.2289   57.7917 H       1  ZINC001091652821    0.0600
     44 H44       -14.5552   -2.9964   59.0727 H       1  ZINC001091652821    0.0700
     45 H45       -13.6007   -1.9437   55.2970 H       1  ZINC001091652821    0.0900
     46 H46       -15.1653   -2.7814   55.5047 H       1  ZINC001091652821    0.0800
     47 H47       -15.2077   -2.2156   52.8151 H       1  ZINC001091652821    0.1500
@<TRIPOS>BOND
     1     1     2    1
     2     1    26    1
     3     1    27    1
     4     1    28    1
     5     2    25    1
     6     2     3    2
     7     3     4    1
     8     3    29    1
     9     4     5    1
    10     5     6    1
    11     5    25    2
    12     6     7    2
    13     6     8   am
    14     8    24    1
    15     8     9    1
    16     9    10    1
    17     9    30    1
    18     9    31    1
    19    10    11    1
    20    10    22    1
    21    10    12    1
    22    12    13    1
    23    12    32    1
    24    12    33    1
    25    13    14    1
    26    13    21    1
    27    14    15    1
    28    14    34    1
    29    14    35    1
    30    15    20    1
    31    15    16    2
    32    16    17    1
    33    16    36    1
    34    17    18    1
    35    18    19    1
    36    18    20    2
    37    19    37    1
    38    19    38    1
    39    19    39    1
    40    21    22    1
    41    21    40    1
    42    21    41    1
    43    22    23    1
    44    22    24    1
    45    23    42    1
    46    23    43    1
    47    23    44    1
    48    24    45    1
    49    24    46    1
    50    25    47    1
@<TRIPOS>SUBSTRUCTURE
     1 ZINC001091652821        1 TEMP              0 ****  ****    0 ROOT


##########                                Name:    ZINC000826324849
##########                DOCK_Rotatable_Bonds:                   4
##########                         Heavy_Atoms:                  27
##########                    Molecular_Weight:             395.374
##########                DOCK_Rotatable_Bonds:                   4
##########                       Formal_Charge:           0.0400001
##########                     HBond_Acceptors:                  13
##########                        HBond_Donors:                   1
##########                         Heavy_Atoms:                  27
##########                          Grid_Score:          -29.143919
##########                     Grid_vdw_energy:          -27.897123
##########                      Grid_es_energy:           -1.246796
##########           Internal_energy_repulsive:           84.584702

@<TRIPOS>MOLECULE
ZINC000826324849
 41 44 1 0 0
SMALL
USER_CHARGES


@<TRIPOS>ATOM
      1 C1        -16.3415   -2.8847   58.6592 C.3     1  ZINC000826324849   -0.0600
      2 C2        -15.1653   -1.9621   58.8497 C.2     1  ZINC000826324849    0.2000
      3 N3        -13.9777   -2.2927   59.2967 N.2     1  ZINC000826324849   -0.4600
      4 C4        -13.2610   -1.1546   59.2966 C.2     1  ZINC000826324849    0.1600
      5 C5        -11.8244   -1.0052   59.7261 C.3     1  ZINC000826324849    0.2200
      6 H6        -11.5979    0.0483   59.8905 H       1  ZINC000826324849    0.1300
      7 C7        -11.5878   -1.7921   61.0202 C.3     1  ZINC000826324849    0.0600
      8 O8        -10.1897   -1.7989   61.3182 O.3     1  ZINC000826324849   -0.3600
      9 C9         -9.3843   -2.4491   60.3321 C.3     1  ZINC000826324849    0.0400
     10 C10        -9.5078   -1.6958   59.0028 C.3     1  ZINC000826324849    0.0800
     11 N11       -10.9368   -1.5460   58.6844 N.am    1  ZINC000826324849   -1.0100
     12 S12       -11.5287   -1.9751   57.1984 S.o2    1  ZINC000826324849    2.7100
     13 O13       -11.1168   -3.3165   56.9746 O.2     1  ZINC000826324849   -0.9300
     14 O14       -12.8891   -1.5655   57.1749 O.2     1  ZINC000826324849   -0.9300
     15 C15       -10.6920   -0.9911   55.9998 C.ar    1  ZINC000826324849   -0.5800
     16 C16        -9.9391    0.0939   56.4003 C.ar    1  ZINC000826324849   -0.0400
     17 C17        -9.2812    0.8682   55.4614 C.ar    1  ZINC000826324849   -0.0800
     18 C18        -9.3735    0.5611   54.1166 C.ar    1  ZINC000826324849   -0.1100
     19 C19       -10.1251   -0.5238   53.7033 C.ar    1  ZINC000826324849    0.1300
     20 F20       -10.2150   -0.8241   52.3892 F       1  ZINC000826324849   -0.1100
     21 C21       -10.7850   -1.3108   54.6473 C.ar    1  ZINC000826324849    0.0500
     22 C22       -11.5930   -2.4770   54.2111 C.2     1  ZINC000826324849    0.1800
     23 N23       -11.1543   -3.7002   53.9895 N.2     1  ZINC000826324849   -0.2600
     24 N24       -12.1600   -4.4204   53.6279 N.pl3   1  ZINC000826324849   -0.2200
     25 N25       -13.2217   -3.6925   53.6135 N.2     1  ZINC000826324849   -0.0200
     26 N26       -12.9119   -2.4928   53.9714 N.2     1  ZINC000826324849   -0.2600
     27 N27       -14.0349   -0.2075   58.8576 N.2     1  ZINC000826324849   -0.3800
     28 O28       -15.1315   -0.6515   58.5897 O.3     1  ZINC000826324849    0.0900
     29 H29       -17.1875   -2.3192   58.2687 H       1  ZINC000826324849    0.1000
     30 H30       -16.0749   -3.6726   57.9547 H       1  ZINC000826324849    0.1100
     31 H31       -16.6129   -3.3298   59.6164 H       1  ZINC000826324849    0.1100
     32 H32       -12.1322   -1.3199   61.8380 H       1  ZINC000826324849    0.1200
     33 H33       -11.9379   -2.8165   60.8926 H       1  ZINC000826324849    0.0600
     34 H34        -8.3431   -2.4495   60.6549 H       1  ZINC000826324849    0.1200
     35 H35        -9.7263   -3.4758   60.2019 H       1  ZINC000826324849    0.0600
     36 H36        -9.0476   -0.7119   59.0941 H       1  ZINC000826324849    0.0900
     37 H37        -9.0131   -2.2612   58.2131 H       1  ZINC000826324849    0.1100
     38 H38        -9.8636    0.3394   57.4494 H       1  ZINC000826324849    0.1400
     39 H39        -8.6933    1.7163   55.7801 H       1  ZINC000826324849    0.1500
     40 H40        -8.8585    1.1694   53.3879 H       1  ZINC000826324849    0.1500
     41 H41       -12.1228   -5.3629   53.4017 H       1  ZINC000826324849    0.4800
@<TRIPOS>BOND
     1     1     2    1
     2     1    29    1
     3     1    30    1
     4     1    31    1
     5     2    28    1
     6     2     3    2
     7     3     4    1
     8     4     5    1
     9     4    27    2
    10     5     6    1
    11     5    11    1
    12     5     7    1
    13     7     8    1
    14     7    32    1
    15     7    33    1
    16     8     9    1
    17     9    10    1
    18     9    34    1
    19     9    35    1
    20    10    11    1
    21    10    36    1
    22    10    37    1
    23    11    12   am
    24    12    13    2
    25    12    14    2
    26    12    15    1
    27    15    21   ar
    28    15    16   ar
    29    16    17   ar
    30    16    38    1
    31    17    18   ar
    32    17    39    1
    33    18    19   ar
    34    18    40    1
    35    19    20    1
    36    19    21   ar
    37    21    22    1
    38    22    26    1
    39    22    23    2
    40    23    24    1
    41    24    25    1
    42    24    41    1
    43    25    26    2
    44    27    28    1
@<TRIPOS>SUBSTRUCTURE
     1 ZINC000826324849        1 TEMP              0 ****  ****    0 ROOT


##########                                Name:    ZINC000277311370
##########                DOCK_Rotatable_Bonds:                   5
##########                         Heavy_Atoms:                  17
##########                    Molecular_Weight:             361.036
##########                DOCK_Rotatable_Bonds:                   5
##########                       Formal_Charge:        -7.45058e-08
##########                     HBond_Acceptors:                   4
##########                        HBond_Donors:                   1
##########                         Heavy_Atoms:                  17
##########                          Grid_Score:          -29.100176
##########                     Grid_vdw_energy:          -28.801289
##########                      Grid_es_energy:           -0.298886
##########           Internal_energy_repulsive:           11.195598

@<TRIPOS>MOLECULE
ZINC000277311370
 28 28 1 0 0
SMALL
USER_CHARGES


@<TRIPOS>ATOM
      1 C1         -9.5417   -1.2251   61.2572 C.3     1  ZINC000277311370   -0.1500
      2 C2        -10.2456   -1.1775   59.8995 C.3     1  ZINC000277311370   -0.1000
      3 C3         -9.3583   -0.4461   58.8903 C.3     1  ZINC000277311370   -0.1600
      4 C4        -10.5063   -2.6035   59.4101 C.3     1  ZINC000277311370    0.2500
      5 H5        -11.1433   -3.1227   60.1262 H       1  ZINC000277311370    0.1400
      6 C6         -9.2268   -3.3199   59.2818 C.1     1  ZINC000277311370    0.1900
      7 N7         -8.2395   -3.8727   59.1828 N.1     1  ZINC000277311370   -0.4100
      8 N8        -11.1735   -2.5580   58.1066 N.am    1  ZINC000277311370   -0.7000
      9 C9        -11.4059   -3.6992   57.4283 C.2     1  ZINC000277311370    0.5700
     10 O10       -11.0636   -4.7662   57.8988 O.2     1  ZINC000277311370   -0.4900
     11 C11       -12.0787   -3.6531   56.1098 C.ar    1  ZINC000277311370    0.1100
     12 N12       -11.4093   -3.2316   55.0436 N.ar    1  ZINC000277311370   -0.4300
     13 C13       -11.9697   -3.1760   53.8544 C.ar    1  ZINC000277311370    0.1300
     14 Br14      -10.9609   -2.5658   52.3759 Br      1  ZINC000277311370    0.0200
     15 C15       -13.2902   -3.5589   53.6703 C.ar    1  ZINC000277311370   -0.1100
     16 C16       -14.0256   -4.0053   54.7561 C.ar    1  ZINC000277311370   -0.0400
     17 C17       -13.4077   -4.0582   55.9973 C.ar    1  ZINC000277311370   -0.0900
     18 Br18      -14.3591   -4.6585   57.5173 Br      1  ZINC000277311370    0.0300
     19 H19        -9.3559   -0.2092   61.6059 H       1  ZINC000277311370    0.0700
     20 H20       -10.1739   -1.7461   61.9761 H       1  ZINC000277311370    0.0700
     21 H21        -8.5938   -1.7538   61.1567 H       1  ZINC000277311370    0.0600
     22 H22       -11.1935   -0.6488   60.0000 H       1  ZINC000277311370    0.1000
     23 H23        -8.4104   -0.9748   58.7898 H       1  ZINC000277311370    0.0600
     24 H24        -9.8597   -0.4124   57.9230 H       1  ZINC000277311370    0.0600
     25 H25        -9.1724    0.5697   59.2390 H       1  ZINC000277311370    0.0700
     26 H26       -11.4478   -1.7065   57.7316 H       1  ZINC000277311370    0.4200
     27 H27       -13.7406   -3.5093   52.6901 H       1  ZINC000277311370    0.1600
     28 H28       -15.0553   -4.3090   54.6384 H       1  ZINC000277311370    0.1700
@<TRIPOS>BOND
     1     1     2    1
     2     1    19    1
     3     1    20    1
     4     1    21    1
     5     2     3    1
     6     2     4    1
     7     2    22    1
     8     3    23    1
     9     3    24    1
    10     3    25    1
    11     4     5    1
    12     4     6    1
    13     4     8    1
    14     6     7    3
    15     8     9   am
    16     8    26    1
    17     9    10    2
    18     9    11    1
    19    11    17   ar
    20    11    12   ar
    21    12    13   ar
    22    13    14    1
    23    13    15   ar
    24    15    16   ar
    25    15    27    1
    26    16    17   ar
    27    16    28    1
    28    17    18    1
@<TRIPOS>SUBSTRUCTURE
     1 ZINC000277311370        1 TEMP              0 ****  ****    0 ROOT


##########                                Name:    ZINC000279974681
##########                DOCK_Rotatable_Bonds:                   4
##########                         Heavy_Atoms:                  23
##########                    Molecular_Weight:              338.79
##########                DOCK_Rotatable_Bonds:                   4
##########                       Formal_Charge:           0.0100008
##########                     HBond_Acceptors:                   7
##########                        HBond_Donors:                   1
##########                         Heavy_Atoms:                  23
##########                          Grid_Score:          -29.088179
##########                     Grid_vdw_energy:          -28.351549
##########                      Grid_es_energy:           -0.736629
##########           Internal_energy_repulsive:            6.555737

@<TRIPOS>MOLECULE
ZINC000279974681
 42 45 1 0 0
SMALL
USER_CHARGES


@<TRIPOS>ATOM
      1 C1        -13.5055   -5.3696   56.3881 C.3     1  ZINC000279974681   -0.1400
      2 C2        -12.5678   -4.1607   56.3718 C.3     1  ZINC000279974681    0.0700
      3 H3        -11.5451   -4.4909   56.5540 H       1  ZINC000279974681    0.0600
      4 C4        -12.9889   -3.1714   57.4645 C.3     1  ZINC000279974681    0.1000
      5 N5        -12.1963   -1.9416   57.3074 N.am    1  ZINC000279974681   -0.6300
      6 C6        -11.5416   -1.3998   58.3536 C.2     1  ZINC000279974681    0.7100
      7 O7        -10.8919   -0.3829   58.2036 O.2     1  ZINC000279974681   -0.5600
      8 N8        -11.6071   -1.9851   59.5659 N.am    1  ZINC000279974681   -0.6700
      9 C9        -10.9260   -1.4214   60.6540 C.ar    1  ZINC000279974681    0.2000
     10 C10       -11.5248   -0.4191   61.4039 C.ar    1  ZINC000279974681   -0.1200
     11 C11       -10.8517    0.1371   62.4791 C.ar    1  ZINC000279974681    0.0700
     12 C12        -9.5743   -0.3108   62.8058 C.ar    1  ZINC000279974681    0.0200
     13 C13        -8.9790   -1.3114   62.0546 C.ar    1  ZINC000279974681   -0.0700
     14 C14        -9.6536   -1.8703   60.9851 C.ar    1  ZINC000279974681   -0.0700
     15 Cl15       -8.9044   -3.1236   60.0462 Cl      1  ZINC000279974681   -0.0500
     16 O16        -9.1318    0.3885   63.8927 O.3     1  ZINC000279974681   -0.3000
     17 C17        -9.9815    1.5479   63.9758 C.3     1  ZINC000279974681    0.2100
     18 O18       -11.2098    1.1164   63.3607 O.3     1  ZINC000279974681   -0.3000
     19 C19       -12.1392   -1.3210   55.9745 C.3     1  ZINC000279974681    0.0800
     20 C20       -11.7596   -2.4005   54.9544 C.3     1  ZINC000279974681    0.1100
     21 H21       -10.7336   -2.7235   55.1309 H       1  ZINC000279974681    0.0700
     22 C22       -11.8799   -1.8313   53.5393 C.3     1  ZINC000279974681   -0.1600
     23 C23       -10.5826   -1.5482   52.7791 C.3     1  ZINC000279974681   -0.1700
     24 C24       -11.4617   -2.7341   52.3769 C.3     1  ZINC000279974681   -0.1600
     25 O25       -12.6418   -3.5162   55.0979 O.3     1  ZINC000279974681   -0.3600
     26 H26       -13.2066   -6.0718   55.6098 H       1  ZINC000279974681    0.0700
     27 H27       -13.4500   -5.8595   57.3602 H       1  ZINC000279974681    0.0800
     28 H28       -14.5280   -5.0388   56.2059 H       1  ZINC000279974681    0.0700
     29 H29       -14.0491   -2.9404   57.3618 H       1  ZINC000279974681    0.0800
     30 H30       -12.8007   -3.6066   58.4460 H       1  ZINC000279974681    0.1100
     31 H31       -12.1254   -2.7962   59.6854 H       1  ZINC000279974681    0.4100
     32 H32       -12.5154   -0.0726   61.1489 H       1  ZINC000279974681    0.1800
     33 H33        -7.9881   -1.6585   62.3079 H       1  ZINC000279974681    0.1500
     34 H34       -10.1509    1.8247   65.0163 H       1  ZINC000279974681    0.1400
     35 H35        -9.5480    2.3809   63.4224 H       1  ZINC000279974681    0.0900
     36 H36       -13.1140   -0.9037   55.7217 H       1  ZINC000279974681    0.0900
     37 H37       -11.3885   -0.5307   55.9693 H       1  ZINC000279974681    0.0900
     38 H38       -12.7182   -1.1544   53.3745 H       1  ZINC000279974681    0.1100
     39 H39       -10.5672   -0.6848   52.1140 H       1  ZINC000279974681    0.1000
     40 H40        -9.6435   -1.7674   53.2871 H       1  ZINC000279974681    0.1000
     41 H41       -11.1010   -3.7334   52.6203 H       1  ZINC000279974681    0.1000
     42 H42       -12.0247   -2.6508   51.4473 H       1  ZINC000279974681    0.1000
@<TRIPOS>BOND
     1     1     2    1
     2     1    26    1
     3     1    27    1
     4     1    28    1
     5     2     3    1
     6     2    25    1
     7     2     4    1
     8     4     5    1
     9     4    29    1
    10     4    30    1
    11     5     6   am
    12     5    19    1
    13     6     7    2
    14     6     8   am
    15     8     9    1
    16     8    31    1
    17     9    14   ar
    18     9    10   ar
    19    10    11   ar
    20    10    32    1
    21    11    18    1
    22    11    12   ar
    23    12    13   ar
    24    12    16    1
    25    13    14   ar
    26    13    33    1
    27    14    15    1
    28    16    17    1
    29    17    18    1
    30    17    34    1
    31    17    35    1
    32    19    20    1
    33    19    36    1
    34    19    37    1
    35    20    21    1
    36    20    22    1
    37    20    25    1
    38    22    24    1
    39    22    23    1
    40    22    38    1
    41    23    24    1
    42    23    39    1
    43    23    40    1
    44    24    41    1
    45    24    42    1
@<TRIPOS>SUBSTRUCTURE
     1 ZINC000279974681        1 TEMP              0 ****  ****    0 ROOT


##########                                Name:    ZINC001272744746
##########                DOCK_Rotatable_Bonds:                   6
##########                         Heavy_Atoms:                  25
##########                    Molecular_Weight:             348.417
##########                DOCK_Rotatable_Bonds:                   6
##########                       Formal_Charge:           0.0299999
##########                     HBond_Acceptors:                   6
##########                        HBond_Donors:                   1
##########                         Heavy_Atoms:                  25
##########                          Grid_Score:          -29.062668
##########                     Grid_vdw_energy:          -28.506966
##########                      Grid_es_energy:           -0.555703
##########           Internal_energy_repulsive:           30.207884

@<TRIPOS>MOLECULE
ZINC001272744746
 50 52 1 0 0
SMALL
USER_CHARGES


@<TRIPOS>ATOM
      1 C1        -16.4564   -2.7365   57.8119 C.2     1  ZINC001272744746   -0.1700
      2 C2        -15.2696   -3.0267   57.3391 C.2     1  ZINC001272744746   -0.1700
      3 C3        -14.3280   -3.8864   58.1423 C.3     1  ZINC001272744746    0.1500
      4 N4        -12.9483   -3.6157   57.7306 N.am    1  ZINC001272744746   -0.6100
      5 C5        -12.0389   -2.6988   58.4310 C.3     1  ZINC001272744746    0.0700
      6 C6        -10.6319   -3.0499   57.9177 C.3     1  ZINC001272744746    0.1100
      7 C7        -10.9266   -3.6761   56.5424 C.3     1  ZINC001272744746   -0.1500
      8 C8        -12.3496   -4.1790   56.6660 C.2     1  ZINC001272744746    0.5200
      9 O9        -12.8754   -4.9688   55.9106 O.2     1  ZINC001272744746   -0.5200
     10 C10        -9.9651   -4.0653   58.8353 C.3     1  ZINC001272744746   -0.1000
     11 C11        -9.7038   -3.4210   60.2011 C.3     1  ZINC001272744746   -0.1200
     12 C12        -8.8583   -2.1595   60.0054 C.3     1  ZINC001272744746   -0.1200
     13 C13        -9.5927   -1.1949   59.0717 C.3     1  ZINC001272744746    0.0500
     14 N14        -9.8187   -1.8462   57.7736 N.3     1  ZINC001272744746   -0.5100
     15 C15       -10.4252   -0.9129   56.8148 C.3     1  ZINC001272744746    0.0800
     16 C16       -10.2478    0.4999   57.3082 C.ar    1  ZINC001272744746   -0.0200
     17 C17       -11.2581    1.1111   58.0267 C.ar    1  ZINC001272744746   -0.1700
     18 C18       -11.0996    2.4091   58.4819 C.ar    1  ZINC001272744746    0.1200
     19 F19       -12.0884    3.0046   59.1840 F       1  ZINC001272744746   -0.1200
     20 C20        -9.9248    3.0974   58.2173 C.ar    1  ZINC001272744746    0.0400
     21 O21        -9.7663    4.3726   58.6640 O.3     1  ZINC001272744746   -0.4700
     22 C22        -8.9089    2.4806   57.4946 C.ar    1  ZINC001272744746    0.1300
     23 O23        -7.7551    3.1512   57.2329 O.3     1  ZINC001272744746   -0.3000
     24 C24        -6.7560    2.4557   56.4845 C.3     1  ZINC001272744746    0.0200
     25 C25        -9.0726    1.1796   57.0461 C.ar    1  ZINC001272744746   -0.1800
     26 H26       -16.7600   -3.1135   58.7774 H       1  ZINC001272744746    0.1000
     27 H27       -17.1296   -2.1167   57.2382 H       1  ZINC001272744746    0.1000
     28 H28       -14.9660   -2.6497   56.3736 H       1  ZINC001272744746    0.1100
     29 H29       -14.4423   -3.6585   59.2020 H       1  ZINC001272744746    0.0900
     30 H30       -14.5590   -4.9376   57.9697 H       1  ZINC001272744746    0.0800
     31 H31       -12.2829   -1.6650   58.1867 H       1  ZINC001272744746    0.0700
     32 H32       -12.0984   -2.8573   59.5078 H       1  ZINC001272744746    0.0900
     33 H33       -10.8500   -2.9247   55.7563 H       1  ZINC001272744746    0.1100
     34 H34       -10.2470   -4.5055   56.3467 H       1  ZINC001272744746    0.1100
     35 H35       -10.6196   -4.9281   58.9595 H       1  ZINC001272744746    0.0700
     36 H36        -9.0197   -4.3855   58.3975 H       1  ZINC001272744746    0.0800
     37 H37       -10.6531   -3.1551   60.6664 H       1  ZINC001272744746    0.0600
     38 H38        -9.1679   -4.1238   60.8392 H       1  ZINC001272744746    0.0700
     39 H39        -8.6946   -1.6783   60.9696 H       1  ZINC001272744746    0.0700
     40 H40        -7.8980   -2.4300   59.5662 H       1  ZINC001272744746    0.0700
     41 H41       -10.5513   -0.9214   59.5128 H       1  ZINC001272744746    0.0400
     42 H42        -8.9899   -0.2982   58.9282 H       1  ZINC001272744746    0.0900
     43 H43        -9.9402   -1.0226   55.8447 H       1  ZINC001272744746    0.1000
     44 H44       -11.4882   -1.1327   56.7164 H       1  ZINC001272744746    0.0600
     45 H45       -12.1730    0.5755   58.2329 H       1  ZINC001272744746    0.1400
     46 H46        -8.9155    4.7684   58.4304 H       1  ZINC001272744746    0.3900
     47 H47        -7.1597    2.1767   55.5112 H       1  ZINC001272744746    0.0600
     48 H48        -5.8895    3.1025   56.3465 H       1  ZINC001272744746    0.1100
     49 H49        -6.4567    1.5577   57.0247 H       1  ZINC001272744746    0.0600
     50 H50        -8.2850    0.6990   56.4848 H       1  ZINC001272744746    0.1400
@<TRIPOS>BOND
     1     1     2    2
     2     1    26    1
     3     1    27    1
     4     2     3    1
     5     2    28    1
     6     3     4    1
     7     3    29    1
     8     3    30    1
     9     4     8   am
    10     4     5    1
    11     5     6    1
    12     5    31    1
    13     5    32    1
    14     6    14    1
    15     6     7    1
    16     6    10    1
    17     7     8    1
    18     7    33    1
    19     7    34    1
    20     8     9    2
    21    10    11    1
    22    10    35    1
    23    10    36    1
    24    11    12    1
    25    11    37    1
    26    11    38    1
    27    12    13    1
    28    12    39    1
    29    12    40    1
    30    13    14    1
    31    13    41    1
    32    13    42    1
    33    14    15    1
    34    15    16    1
    35    15    43    1
    36    15    44    1
    37    16    25   ar
    38    16    17   ar
    39    17    18   ar
    40    17    45    1
    41    18    19    1
    42    18    20   ar
    43    20    21    1
    44    20    22   ar
    45    21    46    1
    46    22    23    1
    47    22    25   ar
    48    23    24    1
    49    24    47    1
    50    24    48    1
    51    24    49    1
    52    25    50    1
@<TRIPOS>SUBSTRUCTURE
     1 ZINC001272744746        1 TEMP              0 ****  ****    0 ROOT


##########                                Name:    ZINC001625935330
##########                DOCK_Rotatable_Bonds:                   5
##########                         Heavy_Atoms:                  25
##########                    Molecular_Weight:             327.385
##########                DOCK_Rotatable_Bonds:                   5
##########                       Formal_Charge:           0.0199995
##########                     HBond_Acceptors:                   4
##########                        HBond_Donors:                   1
##########                         Heavy_Atoms:                  25
##########                          Grid_Score:          -29.030972
##########                     Grid_vdw_energy:          -26.387560
##########                      Grid_es_energy:           -2.643412
##########           Internal_energy_repulsive:           15.705479

@<TRIPOS>MOLECULE
ZINC001625935330
 42 44 1 0 0
SMALL
USER_CHARGES


@<TRIPOS>ATOM
      1 C1         -9.2090   -3.2852   59.9636 C.3     1  ZINC001625935330   -0.1600
      2 C2         -9.1133   -1.7696   59.7770 C.3     1  ZINC001625935330    0.1800
      3 H3         -8.0925   -1.4429   59.9752 H       1  ZINC001625935330    0.1000
      4 N4         -9.4787   -1.4229   58.4013 N.am    1  ZINC001625935330   -0.7100
      5 C5         -9.0625   -0.2578   57.8668 C.2     1  ZINC001625935330    0.5800
      6 O6         -8.3855    0.5059   58.5264 O.2     1  ZINC001625935330   -0.5300
      7 C7         -9.4305    0.0921   56.4748 C.ar    1  ZINC001625935330    0.0800
      8 C8        -10.4136   -0.6398   55.8180 C.ar    1  ZINC001625935330   -0.1000
      9 C9        -10.7488   -0.2958   54.5054 C.ar    1  ZINC001625935330    0.0000
     10 C10       -11.7916   -1.0472   53.7641 C.ar    1  ZINC001625935330   -0.0600
     11 C11       -12.1122   -0.6920   52.4554 C.ar    1  ZINC001625935330   -0.1000
     12 C12       -13.0827   -1.3947   51.7704 C.ar    1  ZINC001625935330   -0.1200
     13 C13       -13.7367   -2.4498   52.3807 C.ar    1  ZINC001625935330   -0.1100
     14 C14       -13.4225   -2.8067   53.6798 C.ar    1  ZINC001625935330   -0.1200
     15 C15       -12.4500   -2.1143   54.3722 C.ar    1  ZINC001625935330   -0.1000
     16 C16       -10.0763    0.7740   53.9099 C.ar    1  ZINC001625935330   -0.1400
     17 C17        -9.1102    1.4510   54.6329 C.ar    1  ZINC001625935330    0.1100
     18 N18        -8.8218    1.1051   55.8689 N.ar    1  ZINC001625935330   -0.4600
     19 C19       -10.0547   -1.0852   60.7343 C.ar    1  ZINC001625935330   -0.0900
     20 C20        -9.5596   -0.4834   61.8773 C.ar    1  ZINC001625935330   -0.0800
     21 C21       -10.4170    0.1473   62.7617 C.ar    1  ZINC001625935330   -0.1100
     22 C22       -11.7723    0.1802   62.5085 C.ar    1  ZINC001625935330   -0.0700
     23 C23       -12.2789   -0.4249   61.3562 C.ar    1  ZINC001625935330   -0.0200
     24 C24       -13.6850   -0.3945   61.0867 C.1     1  ZINC001625935330    0.2500
     25 N25       -14.8004   -0.3705   60.8729 N.1     1  ZINC001625935330   -0.4100
     26 C26       -11.4076   -1.0552   60.4658 C.ar    1  ZINC001625935330   -0.0600
     27 H27        -8.9372   -3.5432   60.9872 H       1  ZINC001625935330    0.0700
     28 H28       -10.2298   -3.6119   59.7654 H       1  ZINC001625935330    0.0600
     29 H29        -8.5282   -3.7803   59.2711 H       1  ZINC001625935330    0.0700
     30 H30       -10.0199   -2.0319   57.8751 H       1  ZINC001625935330    0.4100
     31 H31       -10.9100   -1.4608   56.3139 H       1  ZINC001625935330    0.1500
     32 H32       -11.6024    0.1318   51.9780 H       1  ZINC001625935330    0.1300
     33 H33       -13.3322   -1.1201   50.7562 H       1  ZINC001625935330    0.1300
     34 H34       -14.4958   -2.9967   51.8412 H       1  ZINC001625935330    0.1300
     35 H35       -13.9365   -3.6310   54.1515 H       1  ZINC001625935330    0.1300
     36 H36       -12.2052   -2.3940   55.3863 H       1  ZINC001625935330    0.1300
     37 H37       -10.3076    1.0690   52.8970 H       1  ZINC001625935330    0.1400
     38 H38        -8.5874    2.2786   54.1766 H       1  ZINC001625935330    0.1700
     39 H39        -8.4991   -0.5063   62.0806 H       1  ZINC001625935330    0.1300
     40 H40       -10.0239    0.6144   63.6526 H       1  ZINC001625935330    0.1400
     41 H41       -12.4404    0.6724   63.1997 H       1  ZINC001625935330    0.1400
     42 H42       -11.7928   -1.5251   59.5729 H       1  ZINC001625935330    0.1400
@<TRIPOS>BOND
     1     1     2    1
     2     1    27    1
     3     1    28    1
     4     1    29    1
     5     2     3    1
     6     2     4    1
     7     2    19    1
     8     4     5   am
     9     4    30    1
    10     5     6    2
    11     5     7    1
    12     7    18   ar
    13     7     8   ar
    14     8     9   ar
    15     8    31    1
    16     9    10    1
    17     9    16   ar
    18    10    15   ar
    19    10    11   ar
    20    11    12   ar
    21    11    32    1
    22    12    13   ar
    23    12    33    1
    24    13    14   ar
    25    13    34    1
    26    14    15   ar
    27    14    35    1
    28    15    36    1
    29    16    17   ar
    30    16    37    1
    31    17    18   ar
    32    17    38    1
    33    19    26   ar
    34    19    20   ar
    35    20    21   ar
    36    20    39    1
    37    21    22   ar
    38    21    40    1
    39    22    23   ar
    40    22    41    1
    41    23    24    1
    42    23    26   ar
    43    24    25    3
    44    26    42    1
@<TRIPOS>SUBSTRUCTURE
     1 ZINC001625935330        1 TEMP              0 ****  ****    0 ROOT


##########                                Name:    ZINC001179023006
##########                DOCK_Rotatable_Bonds:                   3
##########                         Heavy_Atoms:                  25
##########                    Molecular_Weight:             340.465
##########                DOCK_Rotatable_Bonds:                   3
##########                       Formal_Charge:          -0.0100005
##########                     HBond_Acceptors:                   4
##########                        HBond_Donors:                   1
##########                         Heavy_Atoms:                  25
##########                          Grid_Score:          -29.022686
##########                     Grid_vdw_energy:          -27.025822
##########                      Grid_es_energy:           -1.996864
##########           Internal_energy_repulsive:           43.318764

@<TRIPOS>MOLECULE
ZINC001179023006
 53 56 1 0 0
SMALL
USER_CHARGES


@<TRIPOS>ATOM
      1 C1        -10.4176   -0.6403   61.9872 C.3     1  ZINC001179023006   -0.1500
      2 C2        -11.3110   -1.3855   60.9936 C.3     1  ZINC001179023006   -0.1100
      3 C3        -12.5453   -0.5369   60.6819 C.3     1  ZINC001179023006   -0.1100
      4 C4        -13.7881   -1.3644   60.4778 C.2     1  ZINC001179023006    0.5400
      5 O5        -14.7022   -1.2917   61.2716 O.2     1  ZINC001179023006   -0.5400
      6 N6        -13.8840   -2.1853   59.4132 N.am    1  ZINC001179023006   -0.5900
      7 C7        -12.7882   -2.2803   58.4392 C.3     1  ZINC001179023006    0.1000
      8 C8        -13.3435   -2.0347   57.0382 C.3     1  ZINC001179023006   -0.1200
      9 C9        -14.4967   -3.0128   56.7710 C.3     1  ZINC001179023006   -0.0500
     10 C10       -15.6161   -2.7388   57.7863 C.3     1  ZINC001179023006   -0.1100
     11 C11       -15.0888   -2.9986   59.2000 C.3     1  ZINC001179023006    0.0900
     12 C12       -15.0328   -2.7773   55.3677 C.3     1  ZINC001179023006   -0.0800
     13 C13       -13.9574   -2.9165   54.3341 C.ar    1  ZINC001179023006   -0.0700
     14 C14       -13.4798   -1.7671   53.7126 C.ar    1  ZINC001179023006   -0.1100
     15 C15       -12.4459   -1.8553   52.8013 C.ar    1  ZINC001179023006   -0.1100
     16 C16       -11.8836   -3.0821   52.5025 C.ar    1  ZINC001179023006   -0.1200
     17 C17       -12.3702   -4.2252   53.1116 C.ar    1  ZINC001179023006   -0.1000
     18 C18       -13.4126   -4.1250   54.0159 C.ar    1  ZINC001179023006   -0.1100
     19 C19       -13.9656   -5.3702   54.6609 C.3     1  ZINC001179023006    0.1400
     20 N20       -13.7560   -5.3671   56.0917 N.am    1  ZINC001179023006   -0.7000
     21 C21       -14.0036   -4.4137   56.9525 C.2     1  ZINC001179023006    0.5200
     22 O22       -13.7952   -4.7208   58.1071 O.2     1  ZINC001179023006   -0.5500
     23 C23       -12.3122    0.5071   59.5770 C.3     1  ZINC001179023006   -0.1200
     24 C24       -13.1578    1.4750   60.4246 C.3     1  ZINC001179023006   -0.1400
     25 C25       -12.7425    0.6424   61.6490 C.3     1  ZINC001179023006   -0.1300
     26 H26        -9.5198   -1.2276   62.1799 H       1  ZINC001179023006    0.0600
     27 H27       -10.1366    0.3263   61.5691 H       1  ZINC001179023006    0.0500
     28 H28       -10.9598   -0.4887   62.9206 H       1  ZINC001179023006    0.0600
     29 H29       -11.6233   -2.3354   61.4275 H       1  ZINC001179023006    0.0700
     30 H30       -10.7559   -1.5710   60.0741 H       1  ZINC001179023006    0.0700
     31 H31       -12.0309   -1.5302   58.6671 H       1  ZINC001179023006    0.0900
     32 H32       -12.3448   -3.2750   58.4841 H       1  ZINC001179023006    0.0800
     33 H33       -12.5561   -2.1900   56.3008 H       1  ZINC001179023006    0.0800
     34 H34       -13.7109   -1.0108   56.9684 H       1  ZINC001179023006    0.0800
     35 H35       -16.4597   -3.3991   57.5853 H       1  ZINC001179023006    0.0800
     36 H36       -15.9384   -1.7009   57.7029 H       1  ZINC001179023006    0.0800
     37 H37       -14.8408   -4.0544   59.3091 H       1  ZINC001179023006    0.1200
     38 H38       -15.8496   -2.7228   59.9301 H       1  ZINC001179023006    0.0800
     39 H39       -15.8202   -3.5023   55.1614 H       1  ZINC001179023006    0.0800
     40 H40       -15.4525   -1.7729   55.3112 H       1  ZINC001179023006    0.0900
     41 H41       -13.9170   -0.8067   53.9427 H       1  ZINC001179023006    0.1200
     42 H42       -12.0754   -0.9622   52.3202 H       1  ZINC001179023006    0.1200
     43 H43       -11.0684   -3.1480   51.7973 H       1  ZINC001179023006    0.1300
     44 H44       -11.9396   -5.1887   52.8826 H       1  ZINC001179023006    0.1300
     45 H45       -13.4730   -6.2424   54.2312 H       1  ZINC001179023006    0.0900
     46 H46       -15.0348   -5.4312   54.4581 H       1  ZINC001179023006    0.0800
     47 H47       -13.3812   -6.1811   56.4630 H       1  ZINC001179023006    0.4000
     48 H48       -11.2703    0.8110   59.4763 H       1  ZINC001179023006    0.0900
     49 H49       -12.7715    0.2443   58.6241 H       1  ZINC001179023006    0.0800
     50 H50       -14.2245    1.4273   60.2056 H       1  ZINC001179023006    0.0800
     51 H51       -12.7740    2.4951   60.4397 H       1  ZINC001179023006    0.0700
     52 H52       -13.5487    0.4887   62.3663 H       1  ZINC001179023006    0.0700
     53 H53       -11.8184    0.9834   62.1159 H       1  ZINC001179023006    0.0900
@<TRIPOS>BOND
     1     1     2    1
     2     1    26    1
     3     1    27    1
     4     1    28    1
     5     2     3    1
     6     2    29    1
     7     2    30    1
     8     3    25    1
     9     3     4    1
    10     3    23    1
    11     4     5    2
    12     4     6   am
    13     6    11    1
    14     6     7    1
    15     7     8    1
    16     7    31    1
    17     7    32    1
    18     8     9    1
    19     8    33    1
    20     8    34    1
    21     9    21    1
    22     9    10    1
    23     9    12    1
    24    10    11    1
    25    10    35    1
    26    10    36    1
    27    11    37    1
    28    11    38    1
    29    12    13    1
    30    12    39    1
    31    12    40    1
    32    13    18   ar
    33    13    14   ar
    34    14    15   ar
    35    14    41    1
    36    15    16   ar
    37    15    42    1
    38    16    17   ar
    39    16    43    1
    40    17    18   ar
    41    17    44    1
    42    18    19    1
    43    19    20    1
    44    19    45    1
    45    19    46    1
    46    20    21   am
    47    20    47    1
    48    21    22    2
    49    23    24    1
    50    23    48    1
    51    23    49    1
    52    24    25    1
    53    24    50    1
    54    24    51    1
    55    25    52    1
    56    25    53    1
@<TRIPOS>SUBSTRUCTURE
     1 ZINC001179023006        1 TEMP              0 ****  ****    0 ROOT


##########                                Name:    ZINC001135312623
##########                DOCK_Rotatable_Bonds:                   3
##########                         Heavy_Atoms:                  25
##########                    Molecular_Weight:             341.323
##########                DOCK_Rotatable_Bonds:                   3
##########                       Formal_Charge:        -1.78814e-07
##########                     HBond_Acceptors:                   8
##########                        HBond_Donors:                   2
##########                         Heavy_Atoms:                  25
##########                          Grid_Score:          -29.013954
##########                     Grid_vdw_energy:          -27.441977
##########                      Grid_es_energy:           -1.571977
##########           Internal_energy_repulsive:            6.849761

@<TRIPOS>MOLECULE
ZINC001135312623
 40 42 1 0 0
SMALL
USER_CHARGES


@<TRIPOS>ATOM
      1 C1        -14.3727   -2.9280   57.9331 C.3     1  ZINC001135312623   -0.1300
      2 C2        -13.7404   -2.7656   56.5748 C.ar    1  ZINC001135312623   -0.0600
      3 C3        -14.5155   -2.8596   55.4359 C.ar    1  ZINC001135312623   -0.1000
      4 C4        -13.9360   -2.7112   54.1889 C.ar    1  ZINC001135312623   -0.0300
      5 C5        -14.7849   -2.8146   52.9481 C.3     1  ZINC001135312623   -0.1300
      6 C6        -12.5795   -2.4677   54.0783 C.ar    1  ZINC001135312623   -0.0200
      7 N7        -11.9634   -2.3094   52.7418 N.pl3   1  ZINC001135312623    0.0200
      8 O8        -10.8367   -2.7247   52.5375 O.2     1  ZINC001135312623   -0.1500
      9 O9        -12.5830   -1.7640   51.8462 O.2     1  ZINC001135312623   -0.1500
     10 C10       -11.7986   -2.3714   55.2136 C.ar    1  ZINC001135312623   -0.0700
     11 C11       -12.3782   -2.5152   56.4674 C.ar    1  ZINC001135312623    0.1500
     12 N12       -11.5906   -2.4184   57.6189 N.am    1  ZINC001135312623   -0.6600
     13 C13       -11.6495   -1.3105   58.3843 C.2     1  ZINC001135312623    0.5600
     14 O14       -12.3875   -0.3954   58.0736 O.2     1  ZINC001135312623   -0.5000
     15 C15       -10.8185   -1.2083   59.5993 C.ar    1  ZINC001135312623   -0.1600
     16 C16        -9.9355   -2.2390   59.9321 C.ar    1  ZINC001135312623   -0.0400
     17 C17        -9.1604   -2.1432   61.0670 C.ar    1  ZINC001135312623   -0.1500
     18 C18        -9.2572   -1.0209   61.8796 C.ar    1  ZINC001135312623    0.2000
     19 N19        -8.4839   -0.9051   63.0349 N.am    1  ZINC001135312623   -0.6700
     20 C20        -8.8074    0.0155   63.9651 C.2     1  ZINC001135312623    0.6600
     21 O21        -8.1186    0.1318   64.9593 O.2     1  ZINC001135312623   -0.4900
     22 O22        -9.8833    0.8071   63.8059 O.3     1  ZINC001135312623   -0.3400
     23 C23       -10.2164    1.2157   62.4508 C.3     1  ZINC001135312623    0.1100
     24 C24       -10.1361    0.0094   61.5489 C.ar    1  ZINC001135312623   -0.1800
     25 C25       -10.9091   -0.0767   60.4169 C.ar    1  ZINC001135312623    0.0000
     26 H26       -14.7079   -1.9565   58.2963 H       1  ZINC001135312623    0.0900
     27 H27       -15.2259   -3.6022   57.8585 H       1  ZINC001135312623    0.0800
     28 H28       -13.6415   -3.3427   58.6270 H       1  ZINC001135312623    0.0700
     29 H29       -15.5754   -3.0498   55.5189 H       1  ZINC001135312623    0.1500
     30 H30       -15.2361   -1.8456   52.7348 H       1  ZINC001135312623    0.0900
     31 H31       -14.1627   -3.1189   52.1065 H       1  ZINC001135312623    0.0800
     32 H32       -15.5700   -3.5541   53.1057 H       1  ZINC001135312623    0.0800
     33 H33       -10.7391   -2.1812   55.1264 H       1  ZINC001135312623    0.1700
     34 H34       -11.0019   -3.1483   57.8667 H       1  ZINC001135312623    0.4200
     35 H35        -9.8608   -3.1112   59.2995 H       1  ZINC001135312623    0.1400
     36 H36        -8.4784   -2.9399   61.3247 H       1  ZINC001135312623    0.1500
     37 H37        -7.7175   -1.4844   63.1684 H       1  ZINC001135312623    0.4300
     38 H38       -11.2278    1.6217   62.4295 H       1  ZINC001135312623    0.1300
     39 H39        -9.5088    1.9729   62.1128 H       1  ZINC001135312623    0.1000
     40 H40       -11.5869    0.7242   60.1610 H       1  ZINC001135312623    0.1500
@<TRIPOS>BOND
     1     1     2    1
     2     1    26    1
     3     1    27    1
     4     1    28    1
     5     2    11   ar
     6     2     3   ar
     7     3     4   ar
     8     3    29    1
     9     4     5    1
    10     4     6   ar
    11     5    30    1
    12     5    31    1
    13     5    32    1
    14     6     7    1
    15     6    10   ar
    16     7     8    2
    17     7     9    2
    18    10    11   ar
    19    10    33    1
    20    11    12    1
    21    12    13   am
    22    12    34    1
    23    13    14    2
    24    13    15    1
    25    15    25   ar
    26    15    16   ar
    27    16    17   ar
    28    16    35    1
    29    17    18   ar
    30    17    36    1
    31    18    24   ar
    32    18    19    1
    33    19    20   am
    34    19    37    1
    35    20    21    2
    36    20    22    1
    37    22    23    1
    38    23    24    1
    39    23    38    1
    40    23    39    1
    41    24    25   ar
    42    25    40    1
@<TRIPOS>SUBSTRUCTURE
     1 ZINC001135312623        1 TEMP              0 ****  ****    0 ROOT


##########                                Name:    ZINC000966038509
##########                DOCK_Rotatable_Bonds:                   5
##########                         Heavy_Atoms:                  25
##########                    Molecular_Weight:             346.445
##########                DOCK_Rotatable_Bonds:                   5
##########                       Formal_Charge:           0.0299998
##########                     HBond_Acceptors:                   5
##########                        HBond_Donors:                   1
##########                         Heavy_Atoms:                  25
##########                          Grid_Score:          -29.008326
##########                     Grid_vdw_energy:          -27.305120
##########                      Grid_es_energy:           -1.703205
##########           Internal_energy_repulsive:           17.626669

@<TRIPOS>MOLECULE
ZINC000966038509
 52 54 1 0 0
SMALL
USER_CHARGES


@<TRIPOS>ATOM
      1 C1        -15.4953   -3.0941   53.7520 C.3     1  ZINC000966038509   -0.1200
      2 C2        -13.9990   -3.1309   53.9274 C.ar    1  ZINC000966038509   -0.0100
      3 C3        -13.1722   -2.7936   52.8774 C.ar    1  ZINC000966038509   -0.1600
      4 C4        -11.7953   -2.8276   53.0372 C.ar    1  ZINC000966038509    0.1300
      5 F5        -10.9895   -2.4964   52.0046 F       1  ZINC000966038509   -0.1300
      6 C6        -11.2425   -3.1996   54.2531 C.ar    1  ZINC000966038509   -0.1600
      7 C7        -12.0601   -3.5388   55.3097 C.ar    1  ZINC000966038509   -0.0100
      8 C8        -11.4577   -3.9436   56.6306 C.3     1  ZINC000966038509   -0.1200
      9 C9        -13.4476   -3.5013   55.1558 C.ar    1  ZINC000966038509   -0.1500
     10 C10       -14.3287   -3.8638   56.2846 C.2     1  ZINC000966038509    0.5700
     11 O11       -14.5936   -5.0308   56.4986 O.2     1  ZINC000966038509   -0.5200
     12 N12       -14.8390   -2.9007   57.0775 N.am    1  ZINC000966038509   -0.7100
     13 C13       -15.7114   -3.2604   58.1980 C.3     1  ZINC000966038509    0.1300
     14 H14       -15.9404   -4.3260   58.1859 H       1  ZINC000966038509    0.1200
     15 C15       -15.0796   -2.8436   59.5497 C.3     1  ZINC000966038509    0.0900
     16 N16       -15.3832   -1.4069   59.6810 N.am    1  ZINC000966038509   -0.6200
     17 C17       -14.6856   -0.5210   60.4194 C.2     1  ZINC000966038509    0.5400
     18 O18       -15.0273    0.6421   60.4537 O.2     1  ZINC000966038509   -0.5300
     19 C19       -13.4811   -0.9759   61.2024 C.3     1  ZINC000966038509   -0.1100
     20 C20       -12.1773   -0.6316   60.4402 C.3     1  ZINC000966038509   -0.1100
     21 C21       -11.1213   -0.5860   61.5723 C.3     1  ZINC000966038509   -0.1200
     22 C22       -11.8661    0.0605   62.7586 C.3     1  ZINC000966038509   -0.1200
     23 C23       -13.3665   -0.1874   62.5234 C.3     1  ZINC000966038509   -0.1100
     24 C24       -16.5724   -1.1005   58.8727 C.3     1  ZINC000966038509    0.1000
     25 C25       -17.0107   -2.4122   58.1858 C.3     1  ZINC000966038509   -0.1100
     26 H26       -17.7975   -2.9032   58.7585 H       1  ZINC000966038509    0.1000
     27 C27       -17.4741   -2.1442   56.7525 C.3     1  ZINC000966038509   -0.1400
     28 H28       -15.8672   -2.1028   54.0110 H       1  ZINC000966038509    0.0800
     29 H29       -15.7451   -3.3164   52.7145 H       1  ZINC000966038509    0.0800
     30 H30       -15.9558   -3.8367   54.4036 H       1  ZINC000966038509    0.0700
     31 H31       -13.5976   -2.5028   51.9282 H       1  ZINC000966038509    0.1400
     32 H32       -10.1694   -3.2241   54.3725 H       1  ZINC000966038509    0.1400
     33 H33       -11.3242   -3.0602   57.2549 H       1  ZINC000966038509    0.0800
     34 H34       -12.1225   -4.6464   57.1329 H       1  ZINC000966038509    0.0700
     35 H35       -10.4910   -4.4170   56.4592 H       1  ZINC000966038509    0.0800
     36 H36       -14.6287   -1.9695   56.9061 H       1  ZINC000966038509    0.4000
     37 H37       -15.5318   -3.4033   60.3684 H       1  ZINC000966038509    0.0800
     38 H38       -14.0016   -3.0032   59.5297 H       1  ZINC000966038509    0.0800
     39 H39       -13.5380   -2.0462   61.4007 H       1  ZINC000966038509    0.0900
     40 H40       -11.9353   -1.4106   59.7172 H       1  ZINC000966038509    0.0700
     41 H41       -12.2609    0.3386   59.9505 H       1  ZINC000966038509    0.0700
     42 H42       -10.7949   -1.5935   61.8304 H       1  ZINC000966038509    0.0700
     43 H43       -10.2705    0.0275   61.2760 H       1  ZINC000966038509    0.0700
     44 H44       -11.5531   -0.4037   63.6937 H       1  ZINC000966038509    0.0700
     45 H45       -11.6646    1.1314   62.7870 H       1  ZINC000966038509    0.0700
     46 H46       -13.8930    0.7632   62.4376 H       1  ZINC000966038509    0.0800
     47 H47       -13.7815   -0.7720   63.3443 H       1  ZINC000966038509    0.0700
     48 H48       -17.3727   -0.7332   59.5151 H       1  ZINC000966038509    0.0800
     49 H49       -16.3258   -0.3522   58.1195 H       1  ZINC000966038509    0.0700
     50 H50       -16.6638   -1.6809   56.1895 H       1  ZINC000966038509    0.0600
     51 H51       -17.7537   -3.0854   56.2791 H       1  ZINC000966038509    0.0700
     52 H52       -18.3346   -1.4754   56.7679 H       1  ZINC000966038509    0.0700
@<TRIPOS>BOND
     1     1     2    1
     2     1    28    1
     3     1    29    1
     4     1    30    1
     5     2     9   ar
     6     2     3   ar
     7     3     4   ar
     8     3    31    1
     9     4     5    1
    10     4     6   ar
    11     6     7   ar
    12     6    32    1
    13     7     8    1
    14     7     9   ar
    15     8    33    1
    16     8    34    1
    17     8    35    1
    18     9    10    1
    19    10    11    2
    20    10    12   am
    21    12    13    1
    22    12    36    1
    23    13    14    1
    24    13    25    1
    25    13    15    1
    26    15    16    1
    27    15    37    1
    28    15    38    1
    29    16    17   am
    30    16    24    1
    31    17    18    2
    32    17    19    1
    33    19    23    1
    34    19    20    1
    35    19    39    1
    36    20    21    1
    37    20    40    1
    38    20    41    1
    39    21    22    1
    40    21    42    1
    41    21    43    1
    42    22    23    1
    43    22    44    1
    44    22    45    1
    45    23    46    1
    46    23    47    1
    47    24    25    1
    48    24    48    1
    49    24    49    1
    50    25    26    1
    51    25    27    1
    52    27    50    1
    53    27    51    1
    54    27    52    1
@<TRIPOS>SUBSTRUCTURE
     1 ZINC000966038509        1 TEMP              0 ****  ****    0 ROOT


##########                                Name:    ZINC000422507946
##########                DOCK_Rotatable_Bonds:                   7
##########                         Heavy_Atoms:                  25
##########                    Molecular_Weight:             364.484
##########                DOCK_Rotatable_Bonds:                   7
##########                       Formal_Charge:          0.00999952
##########                     HBond_Acceptors:                   6
##########                        HBond_Donors:                   1
##########                         Heavy_Atoms:                  25
##########                          Grid_Score:          -28.877342
##########                     Grid_vdw_energy:          -28.521629
##########                      Grid_es_energy:           -0.355712
##########           Internal_energy_repulsive:           28.184282

@<TRIPOS>MOLECULE
ZINC000422507946
 50 52 1 0 0
SMALL
USER_CHARGES


@<TRIPOS>ATOM
      1 C1        -12.1707    0.8997   61.2461 C.3     1  ZINC000422507946   -0.1400
      2 C2        -13.2709   -0.1597   61.1584 C.3     1  ZINC000422507946   -0.0400
      3 H3        -13.2099   -0.8409   62.0071 H       1  ZINC000422507946    0.1100
      4 C4        -13.1608   -0.9411   59.8327 C.3     1  ZINC000422507946   -0.1400
      5 C5        -14.5733   -1.3341   59.3663 C.3     1  ZINC000422507946    0.1400
      6 H6        -14.9700   -2.1235   60.0045 H       1  ZINC000422507946    0.1100
      7 N7        -14.5321   -1.7895   57.9744 N.am    1  ZINC000422507946   -0.6900
      8 C8        -13.9718   -2.9769   57.6702 C.2     1  ZINC000422507946    0.5100
      9 O9        -13.5028   -3.6695   58.5493 O.2     1  ZINC000422507946   -0.5000
     10 C10       -13.9282   -3.4406   56.2501 C.2     1  ZINC000422507946    0.5100
     11 O11       -14.7772   -4.2011   55.8339 O.2     1  ZINC000422507946   -0.5200
     12 N12       -12.9458   -3.0140   55.4319 N.am    1  ZINC000422507946   -0.5700
     13 C13       -11.9209   -2.0958   55.9346 C.3     1  ZINC000422507946    0.1400
     14 C14       -11.0190   -2.8270   56.8953 C.ar    1  ZINC000422507946   -0.0800
     15 C15       -10.9613   -4.2078   56.8739 C.ar    1  ZINC000422507946   -0.1100
     16 C16       -10.1342   -4.8801   57.7546 C.ar    1  ZINC000422507946   -0.0900
     17 C17        -9.3642   -4.1719   58.6574 C.ar    1  ZINC000422507946   -0.1500
     18 C18        -9.4209   -2.7885   58.6794 C.ar    1  ZINC000422507946    0.1000
     19 F19        -8.6685   -2.0951   59.5617 F       1  ZINC000422507946   -0.1400
     20 C20       -10.2454   -2.1163   57.7935 C.ar    1  ZINC000422507946   -0.1500
     21 C21       -12.9029   -3.4685   54.0398 C.3     1  ZINC000422507946    0.1400
     22 C22       -13.4556   -2.3702   53.1081 C.3     1  ZINC000422507946   -0.1200
     23 C23       -12.1937   -1.6178   52.6176 C.3     1  ZINC000422507946   -0.1300
     24 C24       -11.1644   -2.7605   52.4336 C.3     1  ZINC000422507946   -0.1200
     25 C25       -11.4461   -3.7166   53.6110 C.3     1  ZINC000422507946   -0.1600
     26 C26       -15.4565   -0.0640   59.4832 C.3     1  ZINC000422507946   -0.0900
     27 S27       -14.9191    0.6354   61.0954 S.3     1  ZINC000422507946   -0.2700
     28 H28       -12.2799    1.4612   62.1740 H       1  ZINC000422507946    0.0700
     29 H29       -11.1954    0.4132   61.2285 H       1  ZINC000422507946    0.0700
     30 H30       -12.2527    1.5798   60.3981 H       1  ZINC000422507946    0.0700
     31 H31       -12.6872   -0.3144   59.0770 H       1  ZINC000422507946    0.0900
     32 H32       -12.5631   -1.8395   59.9861 H       1  ZINC000422507946    0.0900
     33 H33       -14.9081   -1.2363   57.2718 H       1  ZINC000422507946    0.4100
     34 H34       -11.3314   -1.7169   55.0996 H       1  ZINC000422507946    0.1100
     35 H35       -12.4001   -1.2626   56.4486 H       1  ZINC000422507946    0.1000
     36 H36       -11.5631   -4.7621   56.1688 H       1  ZINC000422507946    0.1400
     37 H37       -10.0903   -5.9590   57.7372 H       1  ZINC000422507946    0.1300
     38 H38        -8.7189   -4.6973   59.3457 H       1  ZINC000422507946    0.1400
     39 H39       -10.2901   -1.0373   57.8096 H       1  ZINC000422507946    0.1400
     40 H40       -13.4860   -4.3826   53.9276 H       1  ZINC000422507946    0.1100
     41 H41       -13.9857   -2.8154   52.2661 H       1  ZINC000422507946    0.0800
     42 H42       -14.1112   -1.6963   53.6596 H       1  ZINC000422507946    0.0600
     43 H43       -12.3873   -1.1160   51.6695 H       1  ZINC000422507946    0.0700
     44 H44       -11.8513   -0.9068   53.3694 H       1  ZINC000422507946    0.0600
     45 H45       -11.3244   -3.2687   51.4828 H       1  ZINC000422507946    0.0700
     46 H46       -10.1479   -2.3714   52.4930 H       1  ZINC000422507946    0.0700
     47 H47       -10.7711   -3.4989   54.4386 H       1  ZINC000422507946    0.0900
     48 H48       -11.3224   -4.7508   53.2900 H       1  ZINC000422507946    0.0800
     49 H49       -15.2479    0.6301   58.6691 H       1  ZINC000422507946    0.1000
     50 H50       -16.5139   -0.3276   59.5086 H       1  ZINC000422507946    0.1100
@<TRIPOS>BOND
     1     1     2    1
     2     1    28    1
     3     1    29    1
     4     1    30    1
     5     2     3    1
     6     2    27    1
     7     2     4    1
     8     4     5    1
     9     4    31    1
    10     4    32    1
    11     5     6    1
    12     5     7    1
    13     5    26    1
    14     7     8   am
    15     7    33    1
    16     8     9    2
    17     8    10    1
    18    10    11    2
    19    10    12   am
    20    12    13    1
    21    12    21    1
    22    13    14    1
    23    13    34    1
    24    13    35    1
    25    14    20   ar
    26    14    15   ar
    27    15    16   ar
    28    15    36    1
    29    16    17   ar
    30    16    37    1
    31    17    18   ar
    32    17    38    1
    33    18    19    1
    34    18    20   ar
    35    20    39    1
    36    21    25    1
    37    21    22    1
    38    21    40    1
    39    22    23    1
    40    22    41    1
    41    22    42    1
    42    23    24    1
    43    23    43    1
    44    23    44    1
    45    24    25    1
    46    24    45    1
    47    24    46    1
    48    25    47    1
    49    25    48    1
    50    26    27    1
    51    26    49    1
    52    26    50    1
@<TRIPOS>SUBSTRUCTURE
     1 ZINC000422507946        1 TEMP              0 ****  ****    0 ROOT


##########                                Name:    ZINC000462219577
##########                DOCK_Rotatable_Bonds:                   8
##########                         Heavy_Atoms:                  31
##########                    Molecular_Weight:             418.539
##########                DOCK_Rotatable_Bonds:                   8
##########                       Formal_Charge:         -0.00999914
##########                     HBond_Acceptors:                   6
##########                        HBond_Donors:                   2
##########                         Heavy_Atoms:                  31
##########                          Grid_Score:          -28.823614
##########                     Grid_vdw_energy:          -29.609924
##########                      Grid_es_energy:            0.786311
##########           Internal_energy_repulsive:           11.498919

@<TRIPOS>MOLECULE
ZINC000462219577
 61 64 1 0 0
SMALL
USER_CHARGES


@<TRIPOS>ATOM
      1 C1        -15.3315    0.5467   65.9277 C.3     1  ZINC000462219577   -0.0700
      2 C2        -13.9797    0.9400   65.3899 C.2     1  ZINC000462219577    0.0800
      3 N3        -12.9167    1.2044   66.1060 N.2     1  ZINC000462219577   -0.2900
      4 N4        -11.8697    1.5271   65.2331 N.pl3   1  ZINC000462219577   -0.3200
      5 C5        -10.5626    1.8719   65.6043 C.ar    1  ZINC000462219577    0.1500
      6 C6        -10.3336    3.0069   66.3704 C.ar    1  ZINC000462219577   -0.1100
      7 C7         -9.0447    3.3440   66.7346 C.ar    1  ZINC000462219577   -0.1000
      8 C8         -7.9827    2.5527   66.3365 C.ar    1  ZINC000462219577   -0.1200
      9 C9         -8.2077    1.4219   65.5730 C.ar    1  ZINC000462219577   -0.1000
     10 C10        -9.4950    1.0761   65.2113 C.ar    1  ZINC000462219577   -0.1300
     11 C11       -12.3430    1.4466   63.9689 C.2     1  ZINC000462219577    0.0900
     12 C12       -11.5608    1.7115   62.7085 C.3     1  ZINC000462219577   -0.0800
     13 C13       -11.3667    0.4006   61.9437 C.3     1  ZINC000462219577    0.1700
     14 H14       -11.3939   -0.4353   62.6427 H       1  ZINC000462219577    0.1000
     15 C15       -10.0146    0.4232   61.2278 C.3     1  ZINC000462219577   -0.1600
     16 N16       -12.4389    0.2475   60.9573 N.am    1  ZINC000462219577   -0.7400
     17 C17       -13.0016   -0.9606   60.7556 C.2     1  ZINC000462219577    0.7100
     18 O18       -12.6202   -1.9229   61.3934 O.2     1  ZINC000462219577   -0.5800
     19 N19       -13.9870   -1.1018   59.8469 N.am    1  ZINC000462219577   -0.7400
     20 C20       -14.5997   -2.4145   59.6290 C.3     1  ZINC000462219577    0.1600
     21 H21       -14.5295   -3.0058   60.5420 H       1  ZINC000462219577    0.1000
     22 C22       -16.0722   -2.2355   59.2465 C.3     1  ZINC000462219577   -0.1700
     23 C23       -16.1581   -1.4701   57.9234 C.3     1  ZINC000462219577    0.0700
     24 O24       -15.4355   -2.1805   56.9159 O.3     1  ZINC000462219577   -0.3700
     25 C25       -14.0432   -2.3368   57.1972 C.3     1  ZINC000462219577    0.1400
     26 H26       -13.5833   -1.3554   57.3133 H       1  ZINC000462219577    0.0600
     27 C27       -13.3801   -3.0712   56.0605 C.ar    1  ZINC000462219577   -0.0900
     28 C28       -13.8417   -4.3174   55.6799 C.ar    1  ZINC000462219577   -0.0900
     29 C29       -13.2335   -4.9910   54.6372 C.ar    1  ZINC000462219577   -0.1200
     30 C30       -12.1639   -4.4183   53.9749 C.ar    1  ZINC000462219577   -0.1200
     31 C31       -11.7027   -3.1717   54.3549 C.ar    1  ZINC000462219577   -0.1200
     32 C32       -12.3137   -2.4962   55.3947 C.ar    1  ZINC000462219577   -0.1100
     33 C33       -13.8707   -3.1380   58.4925 C.3     1  ZINC000462219577   -0.1500
     34 C34       -13.6435    1.0794   64.0389 C.2     1  ZINC000462219577   -0.2600
     35 H35       -15.3829   -0.5379   66.0234 H       1  ZINC000462219577    0.0800
     36 H36       -15.4812    1.0053   66.9051 H       1  ZINC000462219577    0.0700
     37 H37       -16.1082    0.8881   65.2434 H       1  ZINC000462219577    0.0800
     38 H38       -11.1624    3.6256   66.6811 H       1  ZINC000462219577    0.1300
     39 H39        -8.8658    4.2267   67.3305 H       1  ZINC000462219577    0.1300
     40 H40        -6.9758    2.8186   66.6221 H       1  ZINC000462219577    0.1300
     41 H41        -7.3764    0.8063   65.2629 H       1  ZINC000462219577    0.1300
     42 H42        -9.6701    0.1927   64.6150 H       1  ZINC000462219577    0.1300
     43 H43       -12.1062    2.4191   62.0841 H       1  ZINC000462219577    0.0900
     44 H44       -10.5875    2.1293   62.9659 H       1  ZINC000462219577    0.1100
     45 H45        -9.9875    1.2591   60.5288 H       1  ZINC000462219577    0.0600
     46 H46        -9.2169    0.5371   61.9617 H       1  ZINC000462219577    0.0700
     47 H47        -9.8764   -0.5107   60.6829 H       1  ZINC000462219577    0.0700
     48 H48       -12.7440    1.0154   60.4493 H       1  ZINC000462219577    0.3900
     49 H49       -14.2904   -0.3342   59.3373 H       1  ZINC000462219577    0.3900
     50 H50       -16.5404   -3.2133   59.1328 H       1  ZINC000462219577    0.0800
     51 H51       -16.5854   -1.6733   60.0265 H       1  ZINC000462219577    0.0800
     52 H52       -17.2023   -1.3771   57.6245 H       1  ZINC000462219577    0.1000
     53 H53       -15.7260   -0.4774   58.0489 H       1  ZINC000462219577    0.0500
     54 H54       -14.6774   -4.7648   56.1974 H       1  ZINC000462219577    0.1300
     55 H55       -13.5938   -5.9648   54.3403 H       1  ZINC000462219577    0.1200
     56 H56       -11.6882   -4.9448   53.1607 H       1  ZINC000462219577    0.1200
     57 H57       -10.8668   -2.7245   53.8376 H       1  ZINC000462219577    0.1200
     58 H58       -11.9534   -1.5224   55.6917 H       1  ZINC000462219577    0.1200
     59 H59       -12.8104   -3.2200   58.7317 H       1  ZINC000462219577    0.0800
     60 H60       -14.2943   -4.1341   58.3639 H       1  ZINC000462219577    0.0900
     61 H61       -14.3069    0.9278   63.2002 H       1  ZINC000462219577    0.1500
@<TRIPOS>BOND
     1     1     2    1
     2     1    35    1
     3     1    36    1
     4     1    37    1
     5     2    34    1
     6     2     3    2
     7     3     4    1
     8     4     5    1
     9     4    11    1
    10     5    10   ar
    11     5     6   ar
    12     6     7   ar
    13     6    38    1
    14     7     8   ar
    15     7    39    1
    16     8     9   ar
    17     8    40    1
    18     9    10   ar
    19     9    41    1
    20    10    42    1
    21    11    12    1
    22    11    34    2
    23    12    13    1
    24    12    43    1
    25    12    44    1
    26    13    14    1
    27    13    15    1
    28    13    16    1
    29    15    45    1
    30    15    46    1
    31    15    47    1
    32    16    17   am
    33    16    48    1
    34    17    18    2
    35    17    19   am
    36    19    20    1
    37    19    49    1
    38    20    21    1
    39    20    33    1
    40    20    22    1
    41    22    23    1
    42    22    50    1
    43    22    51    1
    44    23    24    1
    45    23    52    1
    46    23    53    1
    47    24    25    1
    48    25    26    1
    49    25    27    1
    50    25    33    1
    51    27    32   ar
    52    27    28   ar
    53    28    29   ar
    54    28    54    1
    55    29    30   ar
    56    29    55    1
    57    30    31   ar
    58    30    56    1
    59    31    32   ar
    60    31    57    1
    61    32    58    1
    62    33    59    1
    63    33    60    1
    64    34    61    1
@<TRIPOS>SUBSTRUCTURE
     1 ZINC000462219577        1 TEMP              0 ****  ****    0 ROOT


##########                                Name:    ZINC000338927927
##########                DOCK_Rotatable_Bonds:                   9
##########                         Heavy_Atoms:                  23
##########                    Molecular_Weight:             336.286
##########                DOCK_Rotatable_Bonds:                   9
##########                       Formal_Charge:         -0.00999999
##########                     HBond_Acceptors:                   9
##########                        HBond_Donors:                   2
##########                         Heavy_Atoms:                  23
##########                          Grid_Score:          -28.815456
##########                     Grid_vdw_energy:          -24.694445
##########                      Grid_es_energy:           -4.121011
##########           Internal_energy_repulsive:           15.576352

@<TRIPOS>MOLECULE
ZINC000338927927
 39 39 1 0 0
SMALL
USER_CHARGES


@<TRIPOS>ATOM
      1 C1         -9.2115    2.9611   66.8193 C.3     1  <0>        -0.1600
      2 C2         -9.7157    1.6754   66.1608 C.3     1  <0>        -0.1100
      3 C3         -8.5977    1.0638   65.3141 C.3     1  <0>        -0.1000
      4 H4         -7.9277    1.8527   64.9723 H       1  <0>         0.1400
      5 C5         -9.1966    0.3621   64.1225 C.2     1  <0>         0.5200
      6 O6        -10.2927   -0.1500   64.2079 O.2     1  <0>        -0.4700
      7 N7         -8.5141    0.3035   62.9617 N.am    1  <0>        -0.6700
      8 C8         -9.0700   -0.3479   61.8553 C.ar    1  <0>         0.2200
      9 C9         -8.8981   -1.7167   61.6962 C.ar    1  <0>        -0.2300
     10 C10        -9.4478   -2.3618   60.6019 C.ar    1  <0>         0.1700
     11 F11        -9.2793   -3.6935   60.4492 F       1  <0>        -0.1300
     12 C12       -10.1702   -1.6448   59.6647 C.ar    1  <0>        -0.2500
     13 C13       -10.3446   -0.2752   59.8200 C.ar    1  <0>         0.2600
     14 N14       -11.0735    0.4483   58.8734 N.pl3   1  <0>        -0.7400
     15 C15       -10.5747    0.5696   57.5012 C.3     1  <0>         0.0800
     16 C16       -11.7090    0.2738   56.5182 C.3     1  <0>         0.4500
     17 F17       -11.2169    0.3236   55.2096 F       1  <0>        -0.1800
     18 F18       -12.2271   -1.0004   56.7735 F       1  <0>        -0.1700
     19 F19       -12.7206    1.2279   56.6726 F       1  <0>        -0.1800
     20 C20        -9.7986    0.3725   60.9193 C.ar    1  <0>        -0.2000
     21 C21        -7.8239    0.0723   66.1443 C.2     1  <0>         0.4600
     22 O22        -8.3043   -1.0063   66.4005 O.2     1  <0>        -0.4600
     23 O23        -6.6011    0.3874   66.5991 O.3     1  <0>        -0.3500
     24 C24        -5.9894    1.5915   66.0658 C.3     1  <0>         0.0300
     25 H25        -8.9102    3.6703   66.0485 H       1  <0>         0.0600
     26 H26       -10.0080    3.3968   67.4226 H       1  <0>         0.0600
     27 H27        -8.3571    2.7321   67.4563 H       1  <0>         0.0800
     28 H28       -10.0170    0.9663   66.9317 H       1  <0>         0.0800
     29 H29       -10.5700    1.9045   65.5238 H       1  <0>         0.0800
     30 H30        -7.6375    0.7131   62.8934 H       1  <0>         0.4200
     31 H31        -8.3346   -2.2781   62.4267 H       1  <0>         0.1400
     32 H32       -10.5983   -2.1501   58.8115 H       1  <0>         0.1400
     33 H33       -11.9098    0.8704   59.1244 H       1  <0>         0.4100
     34 H34       -10.2062    1.5822   57.3368 H       1  <0>         0.1100
     35 H35        -9.7638   -0.1419   57.3452 H       1  <0>         0.1100
     36 H36        -9.9332    1.4370   61.0416 H       1  <0>         0.1500
     37 H37        -5.0061    1.7294   66.5156 H       1  <0>         0.1000
     38 H38        -5.8846    1.4976   64.9849 H       1  <0>         0.0600
     39 H39        -6.6183    2.4513   66.2966 H       1  <0>         0.0600
@<TRIPOS>BOND
     1     1     2    1
     2     1    25    1
     3     1    26    1
     4     1    27    1
     5     2     3    1
     6     2    28    1
     7     2    29    1
     8     3     4    1
     9     3     5    1
    10     3    21    1
    11     5     6    2
    12     5     7   am
    13     7     8    1
    14     7    30    1
    15     8    20   ar
    16     8     9   ar
    17     9    10   ar
    18     9    31    1
    19    10    11    1
    20    10    12   ar
    21    12    13   ar
    22    12    32    1
    23    13    14    1
    24    13    20   ar
    25    14    15    1
    26    14    33    1
    27    15    16    1
    28    15    34    1
    29    15    35    1
    30    16    17    1
    31    16    18    1
    32    16    19    1
    33    20    36    1
    34    21    22    2
    35    21    23    1
    36    23    24    1
    37    24    37    1
    38    24    38    1
    39    24    39    1
@<TRIPOS>SUBSTRUCTURE
     1 <0>         1 TEMP              0 ****  ****    0 ROOT


##########                                Name:    ZINC000187810810
##########                DOCK_Rotatable_Bonds:                   7
##########                         Heavy_Atoms:                  27
##########                    Molecular_Weight:             386.414
##########                DOCK_Rotatable_Bonds:                   7
##########                       Formal_Charge:           0.0599998
##########                     HBond_Acceptors:                   8
##########                        HBond_Donors:                   1
##########                         Heavy_Atoms:                  27
##########                          Grid_Score:          -28.656315
##########                     Grid_vdw_energy:          -27.453138
##########                      Grid_es_energy:           -1.203177
##########           Internal_energy_repulsive:           48.401928

@<TRIPOS>MOLECULE
ZINC000187810810
 52 53 1 0 0
SMALL
USER_CHARGES


@<TRIPOS>ATOM
      1 C1        -11.6938   -0.0385   61.6468 C.3     1  ZINC000187810810   -0.1800
      2 C2        -10.8652   -0.8079   60.6160 C.3     1  ZINC000187810810    0.1400
      3 C3        -10.9078   -0.0718   59.2754 C.3     1  ZINC000187810810   -0.1800
      4 C4         -9.4164   -0.9070   61.0977 C.3     1  ZINC000187810810   -0.1400
      5 O5        -11.4135   -2.1424   60.4530 O.3     1  ZINC000187810810   -0.3600
      6 C6        -12.6980   -2.2317   60.0597 C.2     1  ZINC000187810810    0.6500
      7 O7        -13.5929   -2.0435   60.8600 O.2     1  ZINC000187810810   -0.5600
      8 N8        -12.9914   -2.5299   58.7785 N.am    1  ZINC000187810810   -0.6000
      9 C9        -14.3883   -2.6230   58.3326 C.3     1  ZINC000187810810    0.1100
     10 C10       -14.5995   -3.9797   57.6531 C.3     1  ZINC000187810810   -0.1400
     11 C11       -13.5697   -4.1509   56.5340 C.3     1  ZINC000187810810    0.1800
     12 C12       -13.7995   -5.4900   55.8303 C.3     1  ZINC000187810810   -0.1600
     13 N13       -13.7141   -3.0602   55.5667 N.am    1  ZINC000187810810   -0.7100
     14 C14       -12.9391   -3.0299   54.4645 C.2     1  ZINC000187810810    0.5500
     15 O15       -12.1192   -3.9068   54.2737 O.2     1  ZINC000187810810   -0.5100
     16 C16       -13.0860   -1.9300   53.4874 C.ar    1  ZINC000187810810   -0.0900
     17 C17       -14.3233   -1.6833   52.8908 C.ar    1  ZINC000187810810   -0.0900
     18 C18       -14.4537   -0.6550   51.9800 C.ar    1  ZINC000187810810   -0.0900
     19 C19       -13.3613    0.1303   51.6577 C.ar    1  ZINC000187810810   -0.0900
     20 C20       -12.1316   -0.1094   52.2453 C.ar    1  ZINC000187810810   -0.0800
     21 C21       -11.9891   -1.1303   53.1620 C.ar    1  ZINC000187810810   -0.1300
     22 C22       -10.6493   -1.3897   53.8013 C.3     1  ZINC000187810810    0.5200
     23 F23       -10.0772   -2.5348   53.2369 F       1  ZINC000187810810   -0.1800
     24 F24        -9.8086   -0.2928   53.5838 F       1  ZINC000187810810   -0.1600
     25 F25       -10.8183   -1.5822   55.1766 F       1  ZINC000187810810   -0.1600
     26 C26       -12.1593   -4.1223   57.1275 C.3     1  ZINC000187810810   -0.1500
     27 C27       -11.9204   -2.7618   57.7998 C.3     1  ZINC000187810810    0.1300
     28 H28       -12.7260    0.0322   61.3037 H       1  ZINC000187810810    0.0900
     29 H29       -11.6634   -0.5629   62.6018 H       1  ZINC000187810810    0.0600
     30 H30       -11.2822    0.9634   61.7692 H       1  ZINC000187810810    0.0700
     31 H31       -10.4961    0.9301   59.3978 H       1  ZINC000187810810    0.0700
     32 H32       -10.3174   -0.6198   58.5411 H       1  ZINC000187810810    0.0600
     33 H33       -11.9399   -0.0011   58.9323 H       1  ZINC000187810810    0.0900
     34 H34        -9.3861   -1.4314   62.0528 H       1  ZINC000187810810    0.0700
     35 H35        -8.8261   -1.4551   60.3634 H       1  ZINC000187810810    0.0700
     36 H36        -9.0048    0.0949   61.2201 H       1  ZINC000187810810    0.0800
     37 H37       -15.0528   -2.5376   59.1924 H       1  ZINC000187810810    0.1000
     38 H38       -14.5997   -1.8224   57.6238 H       1  ZINC000187810810    0.0700
     39 H39       -14.4762   -4.7768   58.3861 H       1  ZINC000187810810    0.0900
     40 H40       -15.6041   -4.0235   57.2328 H       1  ZINC000187810810    0.0900
     41 H41       -14.8036   -5.5100   55.4065 H       1  ZINC000187810810    0.0600
     42 H42       -13.0662   -5.6121   55.0332 H       1  ZINC000187810810    0.0800
     43 H43       -13.6926   -6.3016   56.5499 H       1  ZINC000187810810    0.0700
     44 H44       -14.3675   -2.3597   55.7196 H       1  ZINC000187810810    0.4000
     45 H45       -15.1767   -2.2960   53.1411 H       1  ZINC000187810810    0.1400
     46 H46       -15.4106   -0.4630   51.5176 H       1  ZINC000187810810    0.1400
     47 H47       -13.4687    0.9336   50.9440 H       1  ZINC000187810810    0.1400
     48 H48       -11.2827    0.5070   51.9891 H       1  ZINC000187810810    0.1500
     49 H49       -12.0590   -4.9182   57.8655 H       1  ZINC000187810810    0.0800
     50 H50       -11.4273   -4.2677   56.3330 H       1  ZINC000187810810    0.1000
     51 H51       -11.9305   -1.9748   57.0457 H       1  ZINC000187810810    0.0700
     52 H52       -10.9569   -2.7702   58.3094 H       1  ZINC000187810810    0.1000
@<TRIPOS>BOND
     1     1     2    1
     2     1    28    1
     3     1    29    1
     4     1    30    1
     5     2     3    1
     6     2     4    1
     7     2     5    1
     8     3    31    1
     9     3    32    1
    10     3    33    1
    11     4    34    1
    12     4    35    1
    13     4    36    1
    14     5     6    1
    15     6     7    2
    16     6     8   am
    17     8    27    1
    18     8     9    1
    19     9    10    1
    20     9    37    1
    21     9    38    1
    22    10    11    1
    23    10    39    1
    24    10    40    1
    25    11    12    1
    26    11    13    1
    27    11    26    1
    28    12    41    1
    29    12    42    1
    30    12    43    1
    31    13    14   am
    32    13    44    1
    33    14    15    2
    34    14    16    1
    35    16    21   ar
    36    16    17   ar
    37    17    18   ar
    38    17    45    1
    39    18    19   ar
    40    18    46    1
    41    19    20   ar
    42    19    47    1
    43    20    21   ar
    44    20    48    1
    45    21    22    1
    46    22    23    1
    47    22    24    1
    48    22    25    1
    49    26    27    1
    50    26    49    1
    51    26    50    1
    52    27    51    1
    53    27    52    1
@<TRIPOS>SUBSTRUCTURE
     1 ZINC000187810810        1 TEMP              0 ****  ****    0 ROOT


##########                                Name:    ZINC000450219577
##########                DOCK_Rotatable_Bonds:                   8
##########                         Heavy_Atoms:                  26
##########                    Molecular_Weight:             353.421
##########                DOCK_Rotatable_Bonds:                   8
##########                       Formal_Charge:          -0.0199997
##########                     HBond_Acceptors:                   6
##########                        HBond_Donors:                   1
##########                         Heavy_Atoms:                  26
##########                          Grid_Score:          -28.645870
##########                     Grid_vdw_energy:          -27.668627
##########                      Grid_es_energy:           -0.977244
##########           Internal_energy_repulsive:           18.325104

@<TRIPOS>MOLECULE
ZINC000450219577
 49 51 1 0 0
SMALL
USER_CHARGES


@<TRIPOS>ATOM
      1 C1        -10.7095    1.7133   54.7511 C.3     1  ZINC000450219577   -0.1800
      2 C2         -9.5988    1.6493   55.8015 C.3     1  ZINC000450219577    0.1200
      3 C3         -8.2971    2.1833   55.2005 C.3     1  ZINC000450219577   -0.1800
      4 C4         -9.9902    2.5021   57.0100 C.3     1  ZINC000450219577   -0.1400
      5 O5         -9.4089    0.2725   56.2217 O.3     1  ZINC000450219577   -0.3400
      6 C6         -8.8002    0.0739   57.4015 C.2     1  ZINC000450219577    0.4700
      7 O7         -7.7775    0.6630   57.6603 O.2     1  ZINC000450219577   -0.5000
      8 C8         -9.3924   -0.8837   58.4031 C.3     1  ZINC000450219577    0.2000
      9 H9         -8.8633   -1.8354   58.3527 H       1  ZINC000450219577    0.1400
     10 N10        -9.2623   -0.3235   59.7504 N.am    1  ZINC000450219577   -0.7100
     11 C11        -9.4523   -1.1097   60.8285 C.2     1  ZINC000450219577    0.5800
     12 O12        -9.7301   -2.2840   60.6829 O.2     1  ZINC000450219577   -0.5200
     13 C13        -9.3227   -0.5439   62.1881 C.ar    1  ZINC000450219577   -0.2500
     14 C14       -10.0273    0.6071   62.5585 C.ar    1  ZINC000450219577    0.1900
     15 N15        -9.8822    1.0784   63.7845 N.ar    1  ZINC000450219577   -0.5100
     16 C16        -9.0888    0.4807   64.6518 C.ar    1  ZINC000450219577    0.3800
     17 C17        -8.9572    1.0572   66.0379 C.3     1  ZINC000450219577   -0.1100
     18 C18        -7.6000    0.9254   66.7319 C.3     1  ZINC000450219577   -0.1500
     19 C19        -8.0631    2.2869   66.2097 C.3     1  ZINC000450219577   -0.1500
     20 N20        -8.4072   -0.6057   64.3449 N.ar    1  ZINC000450219577   -0.5200
     21 C21        -8.4968   -1.1476   63.1430 C.ar    1  ZINC000450219577    0.2200
     22 C22       -10.8500   -1.1020   58.0885 C.ar    1  ZINC000450219577   -0.1100
     23 C23       -11.2337   -2.1651   57.2925 C.ar    1  ZINC000450219577   -0.1000
     24 C24       -12.5706   -2.3653   57.0041 C.ar    1  ZINC000450219577   -0.1200
     25 C25       -13.5240   -1.5027   57.5119 C.ar    1  ZINC000450219577   -0.1100
     26 C26       -13.1405   -0.4403   58.3086 C.ar    1  ZINC000450219577   -0.1200
     27 C27       -11.8038   -0.2424   58.6007 C.ar    1  ZINC000450219577   -0.0800
     28 H28       -10.4307    1.1058   53.8901 H       1  ZINC000450219577    0.0800
     29 H29       -11.6368    1.3329   55.1793 H       1  ZINC000450219577    0.0600
     30 H30       -10.8521    2.7468   54.4356 H       1  ZINC000450219577    0.0700
     31 H31        -8.4397    3.2168   54.8850 H       1  ZINC000450219577    0.0700
     32 H32        -7.5059    2.1378   55.9488 H       1  ZINC000450219577    0.0600
     33 H33        -8.0183    1.5758   54.3395 H       1  ZINC000450219577    0.0800
     34 H34       -10.9175    2.1216   57.4382 H       1  ZINC000450219577    0.0700
     35 H35        -9.1989    2.4565   57.7583 H       1  ZINC000450219577    0.0700
     36 H36       -10.1328    3.5357   56.6945 H       1  ZINC000450219577    0.0800
     37 H37        -9.0394    0.6134   59.8668 H       1  ZINC000450219577    0.4100
     38 H38       -10.6786    1.1025   61.8537 H       1  ZINC000450219577    0.1700
     39 H39        -9.8495    0.9929   66.6606 H       1  ZINC000450219577    0.1300
     40 H40        -7.5994    0.7741   67.8115 H       1  ZINC000450219577    0.1000
     41 H41        -6.8024    0.4216   66.1860 H       1  ZINC000450219577    0.1100
     42 H42        -7.5701    2.6789   65.3201 H       1  ZINC000450219577    0.1000
     43 H43        -8.3671    3.0314   66.9455 H       1  ZINC000450219577    0.1100
     44 H44        -7.9354   -2.0374   62.8991 H       1  ZINC000450219577    0.1800
     45 H45       -10.4888   -2.8390   56.8957 H       1  ZINC000450219577    0.1200
     46 H46       -12.8703   -3.1954   56.3816 H       1  ZINC000450219577    0.1200
     47 H47       -14.5685   -1.6588   57.2859 H       1  ZINC000450219577    0.1300
     48 H48       -13.8853    0.2339   58.7051 H       1  ZINC000450219577    0.1300
     49 H49       -11.5042    0.5876   59.2231 H       1  ZINC000450219577    0.1300
@<TRIPOS>BOND
     1     1     2    1
     2     1    28    1
     3     1    29    1
     4     1    30    1
     5     2     3    1
     6     2     4    1
     7     2     5    1
     8     3    31    1
     9     3    32    1
    10     3    33    1
    11     4    34    1
    12     4    35    1
    13     4    36    1
    14     5     6    1
    15     6     7    2
    16     6     8    1
    17     8     9    1
    18     8    10    1
    19     8    22    1
    20    10    11   am
    21    10    37    1
    22    11    12    2
    23    11    13    1
    24    13    21   ar
    25    13    14   ar
    26    14    15   ar
    27    14    38    1
    28    15    16   ar
    29    16    17    1
    30    16    20   ar
    31    17    19    1
    32    17    18    1
    33    17    39    1
    34    18    19    1
    35    18    40    1
    36    18    41    1
    37    19    42    1
    38    19    43    1
    39    20    21   ar
    40    21    44    1
    41    22    27   ar
    42    22    23   ar
    43    23    24   ar
    44    23    45    1
    45    24    25   ar
    46    24    46    1
    47    25    26   ar
    48    25    47    1
    49    26    27   ar
    50    26    48    1
    51    27    49    1
@<TRIPOS>SUBSTRUCTURE
     1 ZINC000450219577        1 TEMP              0 ****  ****    0 ROOT


##########                                Name:    ZINC000648570180
##########                DOCK_Rotatable_Bonds:                   4
##########                         Heavy_Atoms:                  25
##########                    Molecular_Weight:             342.484
##########                DOCK_Rotatable_Bonds:                   4
##########                       Formal_Charge:          0.00999971
##########                     HBond_Acceptors:                   5
##########                        HBond_Donors:                   0
##########                         Heavy_Atoms:                  25
##########                          Grid_Score:          -28.618504
##########                     Grid_vdw_energy:          -27.252825
##########                      Grid_es_energy:           -1.365679
##########           Internal_energy_repulsive:           86.113350

@<TRIPOS>MOLECULE
ZINC000648570180
 55 58 1 0 0
SMALL
USER_CHARGES


@<TRIPOS>ATOM
      1 C1        -10.6783   -0.3551   53.8731 C.3     1  ZINC000648570180   -0.1500
      2 C2        -11.8002   -1.3416   53.5430 C.3     1  ZINC000648570180   -0.0600
      3 C3        -13.0555   -0.5813   53.1104 C.3     1  ZINC000648570180   -0.1400
      4 C4        -11.3485   -2.2996   52.4214 C.3     1  ZINC000648570180   -0.1200
      5 C5        -11.9771   -3.6612   52.8089 C.3     1  ZINC000648570180   -0.1300
      6 C6        -11.8367   -3.6759   54.3513 C.3     1  ZINC000648570180   -0.1200
      7 C7        -12.1106   -2.2167   54.7700 C.3     1  ZINC000648570180   -0.0700
      8 H8        -13.1558   -2.1003   55.0568 H       1  ZINC000648570180    0.0800
      9 C9        -11.2011   -1.8266   55.9368 C.3     1  ZINC000648570180   -0.1000
     10 H10       -10.1817   -1.6509   55.5930 H       1  ZINC000648570180    0.1000
     11 C11       -11.7571   -0.5864   56.6851 C.3     1  ZINC000648570180   -0.1400
     12 C12       -11.1868   -0.7572   58.1089 C.3     1  ZINC000648570180    0.1200
     13 N13       -10.8673   -2.1818   58.2831 N.am    1  ZINC000648570180   -0.6000
     14 C14       -10.3291   -2.7368   59.3870 C.2     1  ZINC000648570180    0.5800
     15 O15       -10.1055   -3.9303   59.4195 O.2     1  ZINC000648570180   -0.5200
     16 C16       -10.0093   -1.8894   60.5634 C.ar    1  ZINC000648570180    0.1600
     17 C17        -8.8924   -2.1649   61.3517 C.ar    1  ZINC000648570180   -0.2000
     18 C18        -8.6339   -1.3443   62.4412 C.ar    1  ZINC000648570180    0.1800
     19 N19        -9.4472   -0.3351   62.6963 N.ar    1  ZINC000648570180   -0.5400
     20 C20       -10.5017   -0.0979   61.9285 C.ar    1  ZINC000648570180    0.4800
     21 N21       -11.3290    0.9700   62.2305 N.3     1  ZINC000648570180   -0.4400
     22 C22       -10.5853    2.0306   62.9575 C.3     1  ZINC000648570180    0.0500
     23 C23       -11.4614    3.2901   62.7406 C.3     1  ZINC000648570180   -0.1200
     24 C24       -11.9632    3.1161   61.2887 C.3     1  ZINC000648570180   -0.1300
     25 C25       -11.8412    1.6087   60.9988 C.3     1  ZINC000648570180    0.0400
     26 N26       -10.7811   -0.8521   60.8784 N.ar    1  ZINC000648570180   -0.5000
     27 C27       -11.2335   -2.9032   57.0501 C.3     1  ZINC000648570180    0.1100
     28 H28        -9.8269   -0.8974   54.2842 H       1  ZINC000648570180    0.0600
     29 H29       -10.3735    0.1655   52.9653 H       1  ZINC000648570180    0.0500
     30 H30       -11.0353    0.3695   54.6050 H       1  ZINC000648570180    0.0700
     31 H31       -12.8287    0.0257   52.2339 H       1  ZINC000648570180    0.0500
     32 H32       -13.8446   -1.2924   52.8655 H       1  ZINC000648570180    0.0500
     33 H33       -13.3877    0.0642   53.9234 H       1  ZINC000648570180    0.0500
     34 H34       -11.7295   -1.9642   51.4568 H       1  ZINC000648570180    0.0600
     35 H35       -10.2613   -2.3741   52.3983 H       1  ZINC000648570180    0.0700
     36 H36       -13.0264   -3.6995   52.5160 H       1  ZINC000648570180    0.0700
     37 H37       -11.4199   -4.4848   52.3624 H       1  ZINC000648570180    0.0700
     38 H38       -12.5740   -4.3449   54.7951 H       1  ZINC000648570180    0.0700
     39 H39       -10.8284   -3.9727   54.6398 H       1  ZINC000648570180    0.0700
     40 H40       -11.3910    0.3343   56.2309 H       1  ZINC000648570180    0.0900
     41 H41       -12.8469   -0.6027   56.7017 H       1  ZINC000648570180    0.0800
     42 H42       -10.2830   -0.1583   58.2205 H       1  ZINC000648570180    0.0800
     43 H43       -11.9300   -0.4514   58.8451 H       1  ZINC000648570180    0.0700
     44 H44        -8.2442   -2.9972   61.1204 H       1  ZINC000648570180    0.1600
     45 H45        -7.7778   -1.5291   63.0731 H       1  ZINC000648570180    0.1800
     46 H46       -10.5121    1.7909   64.0183 H       1  ZINC000648570180    0.1000
     47 H47        -9.5950    2.1715   62.5246 H       1  ZINC000648570180    0.0500
     48 H48       -12.2980    3.3029   63.4390 H       1  ZINC000648570180    0.0800
     49 H49       -10.8638    4.1966   62.8362 H       1  ZINC000648570180    0.0800
     50 H50       -13.0027    3.4341   61.2071 H       1  ZINC000648570180    0.0800
     51 H51       -11.3375    3.6856   60.6014 H       1  ZINC000648570180    0.0700
     52 H52       -11.1437    1.4439   60.1775 H       1  ZINC000648570180    0.0900
     53 H53       -12.8191    1.1986   60.7469 H       1  ZINC000648570180    0.0900
     54 H54       -12.2348   -3.3245   57.1404 H       1  ZINC000648570180    0.0700
     55 H55       -10.5080   -3.6891   56.8407 H       1  ZINC000648570180    0.0800
@<TRIPOS>BOND
     1     1     2    1
     2     1    28    1
     3     1    29    1
     4     1    30    1
     5     2     7    1
     6     2     3    1
     7     2     4    1
     8     3    31    1
     9     3    32    1
    10     3    33    1
    11     4     5    1
    12     4    34    1
    13     4    35    1
    14     5     6    1
    15     5    36    1
    16     5    37    1
    17     6     7    1
    18     6    38    1
    19     6    39    1
    20     7     8    1
    21     7     9    1
    22     9    10    1
    23     9    27    1
    24     9    11    1
    25    11    12    1
    26    11    40    1
    27    11    41    1
    28    12    13    1
    29    12    42    1
    30    12    43    1
    31    13    14   am
    32    13    27    1
    33    14    15    2
    34    14    16    1
    35    16    26   ar
    36    16    17   ar
    37    17    18   ar
    38    17    44    1
    39    18    19   ar
    40    18    45    1
    41    19    20   ar
    42    20    21    1
    43    20    26   ar
    44    21    25    1
    45    21    22    1
    46    22    23    1
    47    22    46    1
    48    22    47    1
    49    23    24    1
    50    23    48    1
    51    23    49    1
    52    24    25    1
    53    24    50    1
    54    24    51    1
    55    25    52    1
    56    25    53    1
    57    27    54    1
    58    27    55    1
@<TRIPOS>SUBSTRUCTURE
     1 ZINC000648570180        1 TEMP              0 ****  ****    0 ROOT


##########                                Name:    ZINC000179211660
##########                DOCK_Rotatable_Bonds:                   6
##########                         Heavy_Atoms:                  23
##########                    Molecular_Weight:             385.208
##########                DOCK_Rotatable_Bonds:                   6
##########                       Formal_Charge:        -1.78814e-07
##########                     HBond_Acceptors:                   6
##########                        HBond_Donors:                   1
##########                         Heavy_Atoms:                  23
##########                          Grid_Score:          -28.577595
##########                     Grid_vdw_energy:          -28.623060
##########                      Grid_es_energy:            0.045465
##########           Internal_energy_repulsive:           15.771747

@<TRIPOS>MOLECULE
ZINC000179211660
 38 39 1 0 0
SMALL
USER_CHARGES


@<TRIPOS>ATOM
      1 C1        -15.5120   -1.8716   53.0884 C.3     1  ZINC000179211660    0.0300
      2 O2        -14.3420   -2.6816   53.2192 O.3     1  ZINC000179211660   -0.2700
      3 C3        -13.1516   -2.0989   52.9186 C.ar    1  ZINC000179211660    0.1500
      4 C4        -13.1103   -0.7749   52.5073 C.ar    1  ZINC000179211660   -0.2200
      5 C5        -11.8987   -0.1847   52.2027 C.ar    1  ZINC000179211660   -0.0700
      6 C6        -10.7283   -0.9128   52.3071 C.ar    1  ZINC000179211660   -0.1700
      7 C7        -10.7668   -2.2332   52.7165 C.ar    1  ZINC000179211660   -0.0700
      8 C8        -11.9748   -2.8260   53.0280 C.ar    1  ZINC000179211660   -0.1500
      9 C9        -12.0160   -4.2647   53.4746 C.3     1  ZINC000179211660    0.1800
     10 N10       -12.4981   -4.3335   54.8563 N.am    1  ZINC000179211660   -0.6200
     11 C11       -13.7376   -5.0510   55.1647 C.3     1  ZINC000179211660    0.0700
     12 C12       -11.8013   -3.7368   55.8436 C.2     1  ZINC000179211660    0.7000
     13 O13       -10.7734   -3.1400   55.5874 O.2     1  ZINC000179211660   -0.5300
     14 N14       -12.2440   -3.8015   57.1150 N.am    1  ZINC000179211660   -0.6800
     15 C15       -11.5197   -3.1812   58.1414 C.ar    1  ZINC000179211660    0.1900
     16 C16       -10.3007   -3.7057   58.5466 C.ar    1  ZINC000179211660   -0.1400
     17 C17        -9.5871   -3.0908   59.5603 C.ar    1  ZINC000179211660    0.1500
     18 F18        -8.4000   -3.6009   59.9553 F       1  ZINC000179211660   -0.1100
     19 C19       -10.0886   -1.9526   60.1699 C.ar    1  ZINC000179211660   -0.1300
     20 Br20       -9.1105   -1.1145   61.5545 Br      1  ZINC000179211660   -0.0100
     21 C21       -11.3038   -1.4275   59.7672 C.ar    1  ZINC000179211660   -0.0700
     22 C22       -12.0185   -2.0356   58.7519 C.ar    1  ZINC000179211660    0.0600
     23 F23       -13.2050   -1.5224   58.3592 F       1  ZINC000179211660   -0.1300
     24 H24       -16.3912   -2.4569   53.3581 H       1  ZINC000179211660    0.1000
     25 H25       -15.4327   -1.0091   53.7499 H       1  ZINC000179211660    0.0500
     26 H26       -15.6048   -1.5312   52.0570 H       1  ZINC000179211660    0.0500
     27 H27       -14.0246   -0.2058   52.4249 H       1  ZINC000179211660    0.1300
     28 H28       -11.8662    0.8462   51.8824 H       1  ZINC000179211660    0.1200
     29 H29        -9.7822   -0.4499   52.0682 H       1  ZINC000179211660    0.1200
     30 H30        -9.8510   -2.8001   52.7969 H       1  ZINC000179211660    0.1300
     31 H31       -12.6884   -4.8270   52.8267 H       1  ZINC000179211660    0.0900
     32 H32       -11.0148   -4.6917   53.4174 H       1  ZINC000179211660    0.1000
     33 H33       -13.5086   -6.0936   55.3852 H       1  ZINC000179211660    0.0600
     34 H34       -14.2166   -4.5933   56.0302 H       1  ZINC000179211660    0.0600
     35 H35       -14.4097   -5.0000   54.3081 H       1  ZINC000179211660    0.0800
     36 H36       -13.0640   -4.2776   57.3194 H       1  ZINC000179211660    0.4100
     37 H37        -9.9093   -4.5930   58.0715 H       1  ZINC000179211660    0.1800
     38 H38       -11.6926   -0.5400   60.2441 H       1  ZINC000179211660    0.1600
@<TRIPOS>BOND
     1     1     2    1
     2     1    24    1
     3     1    25    1
     4     1    26    1
     5     2     3    1
     6     3     8   ar
     7     3     4   ar
     8     4     5   ar
     9     4    27    1
    10     5     6   ar
    11     5    28    1
    12     6     7   ar
    13     6    29    1
    14     7     8   ar
    15     7    30    1
    16     8     9    1
    17     9    10    1
    18     9    31    1
    19     9    32    1
    20    10    11    1
    21    10    12   am
    22    11    33    1
    23    11    34    1
    24    11    35    1
    25    12    13    2
    26    12    14   am
    27    14    15    1
    28    14    36    1
    29    15    22   ar
    30    15    16   ar
    31    16    17   ar
    32    16    37    1
    33    17    18    1
    34    17    19   ar
    35    19    20    1
    36    19    21   ar
    37    21    22   ar
    38    21    38    1
    39    22    23    1
@<TRIPOS>SUBSTRUCTURE
     1 ZINC000179211660        1 TEMP              0 ****  ****    0 ROOT


##########                                Name:    ZINC000794876634
##########                DOCK_Rotatable_Bonds:                   4
##########                         Heavy_Atoms:                  24
##########                    Molecular_Weight:             389.249
##########                DOCK_Rotatable_Bonds:                   4
##########                       Formal_Charge:        -4.47035e-08
##########                     HBond_Acceptors:                   5
##########                        HBond_Donors:                   0
##########                         Heavy_Atoms:                  24
##########                          Grid_Score:          -28.566299
##########                     Grid_vdw_energy:          -27.298302
##########                      Grid_es_energy:           -1.267998
##########           Internal_energy_repulsive:           51.317673

@<TRIPOS>MOLECULE
ZINC000794876634
 41 43 1 0 0
SMALL
USER_CHARGES


@<TRIPOS>ATOM
      1 C1         -8.8373   -0.4681   62.2419 C.3     1  ZINC000794876634    0.0200
      2 O2        -10.1444   -1.0451   62.2613 O.3     1  ZINC000794876634   -0.3000
      3 C3        -10.5527   -1.6848   61.1351 C.ar    1  ZINC000794876634    0.1300
      4 C4         -9.7217   -2.6186   60.5298 C.ar    1  ZINC000794876634   -0.1800
      5 C5        -10.1293   -3.2706   59.3873 C.ar    1  ZINC000794876634   -0.0400
      6 C6         -9.2245   -4.2831   58.7337 C.3     1  ZINC000794876634   -0.1200
      7 C7        -11.3858   -2.9924   58.8333 C.ar    1  ZINC000794876634   -0.1000
      8 C8        -11.8231   -3.6848   57.6177 C.2     1  ZINC000794876634    0.0600
      9 C9        -11.6118   -3.1160   56.3950 C.2     1  ZINC000794876634   -0.1700
     10 C10       -11.9794   -3.6596   55.0762 C.2     1  ZINC000794876634    0.5700
     11 O11       -12.5396   -4.7206   54.8700 O.2     1  ZINC000794876634   -0.4900
     12 N12       -11.5878   -2.7779   54.1411 N.am    1  ZINC000794876634   -0.5300
     13 C13       -11.7806   -2.9645   52.7008 C.3     1  ZINC000794876634    0.0800
     14 C14       -10.9794   -1.6691   54.7088 C.ar    1  ZINC000794876634    0.3700
     15 N15       -10.4547   -0.5790   54.1629 N.ar    1  ZINC000794876634   -0.4900
     16 C16        -9.9148    0.3752   54.8938 C.ar    1  ZINC000794876634    0.1800
     17 C17        -9.8668    0.2900   56.2739 C.ar    1  ZINC000794876634   -0.1800
     18 Br18       -9.0852    1.6780   57.2929 Br      1  ZINC000794876634   -0.0200
     19 C19       -10.4002   -0.8272   56.9003 C.ar    1  ZINC000794876634    0.0000
     20 C20       -10.9692   -1.8155   56.1041 C.ar    1  ZINC000794876634   -0.1400
     21 C21       -12.2236   -2.0498   59.4459 C.ar    1  ZINC000794876634   -0.1400
     22 C22       -11.8079   -1.4058   60.5933 C.ar    1  ZINC000794876634    0.0900
     23 O23       -12.6180   -0.4912   61.1906 O.3     1  ZINC000794876634   -0.3000
     24 C24       -12.0461    0.2970   62.2364 C.3     1  ZINC000794876634    0.0200
     25 H25        -8.6371    0.0104   63.2005 H       1  ZINC000794876634    0.1000
     26 H26        -8.0980   -1.2492   62.0642 H       1  ZINC000794876634    0.0600
     27 H27        -8.7797    0.2745   61.4460 H       1  ZINC000794876634    0.0600
     28 H28        -8.7530   -2.8337   60.9561 H       1  ZINC000794876634    0.1400
     29 H29        -9.4242   -5.2707   59.1495 H       1  ZINC000794876634    0.0800
     30 H30        -9.4103   -4.2966   57.6597 H       1  ZINC000794876634    0.0700
     31 H31        -8.1846   -4.0143   58.9191 H       1  ZINC000794876634    0.0700
     32 H32       -12.3124   -4.6448   57.6894 H       1  ZINC000794876634    0.1500
     33 H33       -12.2821   -3.9156   52.5217 H       1  ZINC000794876634    0.0900
     34 H34       -12.3915   -2.1518   52.3077 H       1  ZINC000794876634    0.0800
     35 H35       -10.8116   -2.9650   52.2017 H       1  ZINC000794876634    0.0800
     36 H36        -9.4999    1.2439   54.4043 H       1  ZINC000794876634    0.1800
     37 H37       -10.3781   -0.9245   57.9757 H       1  ZINC000794876634    0.1600
     38 H38       -13.1931   -1.8313   59.0233 H       1  ZINC000794876634    0.1400
     39 H39       -11.7785   -0.3485   63.0729 H       1  ZINC000794876634    0.0500
     40 H40       -11.1533    0.8002   61.8654 H       1  ZINC000794876634    0.0600
     41 H41       -12.7706    1.0406   62.5685 H       1  ZINC000794876634    0.1100
@<TRIPOS>BOND
     1     1     2    1
     2     1    25    1
     3     1    26    1
     4     1    27    1
     5     2     3    1
     6     3    22   ar
     7     3     4   ar
     8     4     5   ar
     9     4    28    1
    10     5     6    1
    11     5     7   ar
    12     6    29    1
    13     6    30    1
    14     6    31    1
    15     7     8    1
    16     7    21   ar
    17     8     9    2
    18     8    32    1
    19     9    20    1
    20     9    10    1
    21    10    11    2
    22    10    12   am
    23    12    13    1
    24    12    14    1
    25    13    33    1
    26    13    34    1
    27    13    35    1
    28    14    20   ar
    29    14    15   ar
    30    15    16   ar
    31    16    17   ar
    32    16    36    1
    33    17    18    1
    34    17    19   ar
    35    19    20   ar
    36    19    37    1
    37    21    22   ar
    38    21    38    1
    39    22    23    1
    40    23    24    1
    41    24    39    1
    42    24    40    1
    43    24    41    1
@<TRIPOS>SUBSTRUCTURE
     1 ZINC000794876634        1 TEMP              0 ****  ****    0 ROOT


##########                                Name:    ZINC000130059363
##########                DOCK_Rotatable_Bonds:                   4
##########                         Heavy_Atoms:                  29
##########                    Molecular_Weight:             389.497
##########                DOCK_Rotatable_Bonds:                   4
##########                       Formal_Charge:          -0.0100003
##########                     HBond_Acceptors:                   5
##########                        HBond_Donors:                   0
##########                         Heavy_Atoms:                  29
##########                          Grid_Score:          -28.483166
##########                     Grid_vdw_energy:          -27.365055
##########                      Grid_es_energy:           -1.118112
##########           Internal_energy_repulsive:           28.296589

@<TRIPOS>MOLECULE
ZINC000130059363
 56 60 1 0 0
SMALL
USER_CHARGES


@<TRIPOS>ATOM
      1 C1        -13.7427   -4.0376   56.6166 C.3     1  ZINC000130059363   -0.1200
      2 C2        -13.0494   -3.3435   55.4728 C.ar    1  ZINC000130059363    0.1900
      3 N3        -13.7089   -3.1053   54.3604 N.ar    1  ZINC000130059363   -0.4800
      4 C4        -13.1396   -2.4963   53.3267 C.ar    1  ZINC000130059363    0.2000
      5 C5        -13.9291   -2.2519   52.0962 C.ar    1  ZINC000130059363   -0.0600
      6 C6        -15.2344   -2.7314   51.9954 C.ar    1  ZINC000130059363   -0.1000
      7 C7        -15.9647   -2.5004   50.8475 C.ar    1  ZINC000130059363   -0.1200
      8 C8        -15.4039   -1.7949   49.7979 C.ar    1  ZINC000130059363   -0.1000
      9 C9        -14.1090   -1.3171   49.8920 C.ar    1  ZINC000130059363   -0.1300
     10 C10       -13.3712   -1.5366   51.0374 C.ar    1  ZINC000130059363   -0.0700
     11 C11       -11.8087   -2.0835   53.3839 C.ar    1  ZINC000130059363   -0.1800
     12 C12       -11.0801   -2.3145   54.5340 C.ar    1  ZINC000130059363   -0.0400
     13 C13       -11.7146   -2.9549   55.6072 C.ar    1  ZINC000130059363   -0.1900
     14 C14       -10.9788   -3.2244   56.8592 C.2     1  ZINC000130059363    0.5700
     15 O15       -10.3645   -4.2652   56.9913 O.2     1  ZINC000130059363   -0.5200
     16 N16       -10.9882   -2.3164   57.8552 N.am    1  ZINC000130059363   -0.6000
     17 C17       -10.2567   -2.5650   59.1057 C.3     1  ZINC000130059363    0.1000
     18 C18        -9.3063   -1.3895   59.3522 C.3     1  ZINC000130059363   -0.1500
     19 C19       -10.0865   -0.0799   59.3300 C.3     1  ZINC000130059363    0.1500
     20 H20        -9.3802    0.7384   59.4705 H       1  ZINC000130059363    0.0700
     21 C21       -10.7812    0.1176   57.9841 C.3     1  ZINC000130059363   -0.1100
     22 H22       -10.0400    0.2030   57.1895 H       1  ZINC000130059363    0.1000
     23 C23       -11.6181    1.4041   58.0658 C.3     1  ZINC000130059363   -0.1200
     24 C24       -12.7678    1.1650   59.0477 C.3     1  ZINC000130059363   -0.1400
     25 C25       -12.2470    0.5565   60.3177 C.2     1  ZINC000130059363    0.5200
     26 O26       -12.9532    0.5919   61.3030 O.2     1  ZINC000130059363   -0.5400
     27 N27       -11.0590   -0.0291   60.4103 N.am    1  ZINC000130059363   -0.5700
     28 C28       -10.6859   -0.6400   61.6885 C.3     1  ZINC000130059363    0.0700
     29 C29        -9.3606   -0.2067   62.3184 C.3     1  ZINC000130059363   -0.1800
     30 C30       -10.6849    0.2582   62.9271 C.3     1  ZINC000130059363   -0.1600
     31 C31       -11.7245   -1.0543   57.7132 C.3     1  ZINC000130059363    0.1100
     32 H32       -14.1241   -3.2932   57.3156 H       1  ZINC000130059363    0.0800
     33 H33       -14.5708   -4.6328   56.2321 H       1  ZINC000130059363    0.0800
     34 H34       -13.0346   -4.6885   57.1295 H       1  ZINC000130059363    0.1000
     35 H35       -15.6731   -3.2829   52.8139 H       1  ZINC000130059363    0.1300
     36 H36       -16.9759   -2.8712   50.7683 H       1  ZINC000130059363    0.1300
     37 H37       -15.9790   -1.6168   48.9013 H       1  ZINC000130059363    0.1300
     38 H38       -13.6763   -0.7673   49.0693 H       1  ZINC000130059363    0.1300
     39 H39       -12.3604   -1.1632   51.1098 H       1  ZINC000130059363    0.1400
     40 H40       -11.3531   -1.5892   52.5386 H       1  ZINC000130059363    0.1400
     41 H41       -10.0477   -2.0059   54.6061 H       1  ZINC000130059363    0.1400
     42 H42       -10.9615   -2.6468   59.9332 H       1  ZINC000130059363    0.0700
     43 H43        -9.6837   -3.4881   59.0185 H       1  ZINC000130059363    0.0900
     44 H44        -8.8267   -1.5090   60.3238 H       1  ZINC000130059363    0.0900
     45 H45        -8.5441   -1.3704   58.5733 H       1  ZINC000130059363    0.0800
     46 H46       -10.9960    2.2256   58.4211 H       1  ZINC000130059363    0.0800
     47 H47       -12.0194    1.6450   57.0815 H       1  ZINC000130059363    0.0900
     48 H48       -13.2523    2.1148   59.2746 H       1  ZINC000130059363    0.1000
     49 H49       -13.4946    0.4904   58.5955 H       1  ZINC000130059363    0.1000
     50 H50       -10.9903   -1.6782   61.8200 H       1  ZINC000130059363    0.1100
     51 H51        -8.7928   -0.9602   62.8644 H       1  ZINC000130059363    0.1100
     52 H52        -8.7662    0.5327   61.7817 H       1  ZINC000130059363    0.1000
     53 H53       -10.9620    1.3036   62.7909 H       1  ZINC000130059363    0.1000
     54 H54       -10.9885   -0.1892   63.8736 H       1  ZINC000130059363    0.1000
     55 H55       -12.1226   -0.9752   56.7017 H       1  ZINC000130059363    0.1000
     56 H56       -12.5446   -1.0351   58.4311 H       1  ZINC000130059363    0.0700
@<TRIPOS>BOND
     1     1     2    1
     2     1    32    1
     3     1    33    1
     4     1    34    1
     5     2    13   ar
     6     2     3   ar
     7     3     4   ar
     8     4     5    1
     9     4    11   ar
    10     5    10   ar
    11     5     6   ar
    12     6     7   ar
    13     6    35    1
    14     7     8   ar
    15     7    36    1
    16     8     9   ar
    17     8    37    1
    18     9    10   ar
    19     9    38    1
    20    10    39    1
    21    11    12   ar
    22    11    40    1
    23    12    13   ar
    24    12    41    1
    25    13    14    1
    26    14    15    2
    27    14    16   am
    28    16    31    1
    29    16    17    1
    30    17    18    1
    31    17    42    1
    32    17    43    1
    33    18    19    1
    34    18    44    1
    35    18    45    1
    36    19    20    1
    37    19    27    1
    38    19    21    1
    39    21    22    1
    40    21    23    1
    41    21    31    1
    42    23    24    1
    43    23    46    1
    44    23    47    1
    45    24    25    1
    46    24    48    1
    47    24    49    1
    48    25    26    2
    49    25    27   am
    50    27    28    1
    51    28    30    1
    52    28    29    1
    53    28    50    1
    54    29    30    1
    55    29    51    1
    56    29    52    1
    57    30    53    1
    58    30    54    1
    59    31    55    1
    60    31    56    1
@<TRIPOS>SUBSTRUCTURE
     1 ZINC000130059363        1 TEMP              0 ****  ****    0 ROOT


##########                                Name:    ZINC000463474628
##########                DOCK_Rotatable_Bonds:                   5
##########                         Heavy_Atoms:                  25
##########                    Molecular_Weight:              407.35
##########                DOCK_Rotatable_Bonds:                   5
##########                       Formal_Charge:           0.0200004
##########                     HBond_Acceptors:                   4
##########                        HBond_Donors:                   0
##########                         Heavy_Atoms:                  25
##########                          Grid_Score:          -28.430298
##########                     Grid_vdw_energy:          -28.103613
##########                      Grid_es_energy:           -0.326686
##########           Internal_energy_repulsive:           26.871574

@<TRIPOS>MOLECULE
ZINC000463474628
 52 54 1 0 0
SMALL
USER_CHARGES


@<TRIPOS>ATOM
      1 C1        -11.7396    1.6080   51.4599 C.3     1  ZINC000463474628   -0.1400
      2 C2        -11.4129    2.4120   52.7200 C.3     1  ZINC000463474628   -0.1300
      3 C3        -10.1240    1.8765   53.3468 C.3     1  ZINC000463474628    0.1400
      4 H4         -9.8994    2.4276   54.2600 H       1  ZINC000463474628    0.0800
      5 C5         -8.9564    2.0179   52.3477 C.3     1  ZINC000463474628   -0.1300
      6 C6         -8.1448    0.7153   52.5751 C.3     1  ZINC000463474628   -0.1300
      7 C7         -9.2721   -0.3069   52.8651 C.3     1  ZINC000463474628    0.0900
      8 N8        -10.2724    0.4455   53.6500 N.am    1  ZINC000463474628   -0.6100
      9 C9        -11.1704   -0.0918   54.4992 C.2     1  ZINC000463474628    0.5300
     10 O10       -11.9477    0.6251   55.0933 O.2     1  ZINC000463474628   -0.5100
     11 C11       -11.2088   -1.5834   54.7106 C.3     1  ZINC000463474628   -0.1200
     12 H12       -10.1909   -1.9689   54.7691 H       1  ZINC000463474628    0.1000
     13 C13       -11.9396   -2.2464   53.5408 C.3     1  ZINC000463474628   -0.1000
     14 C14       -11.9504   -3.7640   53.7381 C.3     1  ZINC000463474628   -0.1300
     15 C15       -12.7006   -4.1016   55.0305 C.3     1  ZINC000463474628    0.0900
     16 N16       -12.0929   -3.3532   56.1392 N.am    1  ZINC000463474628   -0.6000
     17 C17       -11.6738   -3.9911   57.2500 C.2     1  ZINC000463474628    0.5700
     18 O18       -11.7971   -5.1970   57.3414 O.2     1  ZINC000463474628   -0.5200
     19 C19       -11.0643   -3.2246   58.3569 C.ar    1  ZINC000463474628   -0.1200
     20 C20        -9.6758   -3.1643   58.4863 C.ar    1  ZINC000463474628   -0.0800
     21 C21        -9.1129   -2.4474   59.5215 C.ar    1  ZINC000463474628   -0.1000
     22 C22        -9.9223   -1.7883   60.4313 C.ar    1  ZINC000463474628   -0.0700
     23 Br23       -9.1425   -0.8070   61.8472 Br      1  ZINC000463474628   -0.0400
     24 C24       -11.3006   -1.8444   60.3081 C.ar    1  ZINC000463474628   -0.0900
     25 C25       -11.8750   -2.5531   59.2742 C.ar    1  ZINC000463474628   -0.0300
     26 C26       -13.3750   -2.6132   59.1418 C.3     1  ZINC000463474628   -0.1300
     27 C27       -11.9498   -1.8962   56.0144 C.3     1  ZINC000463474628    0.1200
     28 H28       -11.1723    2.0051   50.6183 H       1  ZINC000463474628    0.0700
     29 H29       -11.4731    0.5627   51.6167 H       1  ZINC000463474628    0.0600
     30 H30       -12.8059    1.6832   51.2472 H       1  ZINC000463474628    0.0300
     31 H31       -11.2804    3.4615   52.4570 H       1  ZINC000463474628    0.0600
     32 H32       -12.2309    2.3169   53.4339 H       1  ZINC000463474628    0.0700
     33 H33        -9.3283    2.0669   51.3243 H       1  ZINC000463474628    0.0800
     34 H34        -8.3524    2.8945   52.5820 H       1  ZINC000463474628    0.0800
     35 H35        -7.5888    0.4399   51.6789 H       1  ZINC000463474628    0.0900
     36 H36        -7.4779    0.8149   53.4314 H       1  ZINC000463474628    0.0800
     37 H37        -9.7098   -0.6636   51.9329 H       1  ZINC000463474628    0.0700
     38 H38        -8.8854   -1.1429   53.4480 H       1  ZINC000463474628    0.0800
     39 H39       -12.9647   -1.8785   53.4975 H       1  ZINC000463474628    0.0800
     40 H40       -11.4278   -2.0051   52.6092 H       1  ZINC000463474628    0.0700
     41 H41       -12.4505   -4.2372   52.8930 H       1  ZINC000463474628    0.0800
     42 H42       -10.9258   -4.1294   53.8061 H       1  ZINC000463474628    0.0700
     43 H43       -13.7483   -3.8184   54.9295 H       1  ZINC000463474628    0.0800
     44 H44       -12.6263   -5.1710   55.2274 H       1  ZINC000463474628    0.1000
     45 H45        -9.0434   -3.6783   57.7775 H       1  ZINC000463474628    0.1400
     46 H46        -8.0387   -2.4002   59.6229 H       1  ZINC000463474628    0.1400
     47 H47       -11.9268   -1.3285   61.0211 H       1  ZINC000463474628    0.1400
     48 H48       -13.7096   -1.8427   58.4471 H       1  ZINC000463474628    0.0700
     49 H49       -13.6675   -3.5935   58.7656 H       1  ZINC000463474628    0.0900
     50 H50       -13.8328   -2.4467   60.1169 H       1  ZINC000463474628    0.0700
     51 H51       -11.3807   -1.5110   56.8605 H       1  ZINC000463474628    0.1000
     52 H52       -12.9362   -1.4327   55.9934 H       1  ZINC000463474628    0.0800
@<TRIPOS>BOND
     1     1     2    1
     2     1    28    1
     3     1    29    1
     4     1    30    1
     5     2     3    1
     6     2    31    1
     7     2    32    1
     8     3     4    1
     9     3     8    1
    10     3     5    1
    11     5     6    1
    12     5    33    1
    13     5    34    1
    14     6     7    1
    15     6    35    1
    16     6    36    1
    17     7     8    1
    18     7    37    1
    19     7    38    1
    20     8     9   am
    21     9    10    2
    22     9    11    1
    23    11    12    1
    24    11    27    1
    25    11    13    1
    26    13    14    1
    27    13    39    1
    28    13    40    1
    29    14    15    1
    30    14    41    1
    31    14    42    1
    32    15    16    1
    33    15    43    1
    34    15    44    1
    35    16    17   am
    36    16    27    1
    37    17    18    2
    38    17    19    1
    39    19    25   ar
    40    19    20   ar
    41    20    21   ar
    42    20    45    1
    43    21    22   ar
    44    21    46    1
    45    22    23    1
    46    22    24   ar
    47    24    25   ar
    48    24    47    1
    49    25    26    1
    50    26    48    1
    51    26    49    1
    52    26    50    1
    53    27    51    1
    54    27    52    1
@<TRIPOS>SUBSTRUCTURE
     1 ZINC000463474628        1 TEMP              0 ****  ****    0 ROOT


##########                                Name:    ZINC000866034032
##########                DOCK_Rotatable_Bonds:                   4
##########                         Heavy_Atoms:                  23
##########                    Molecular_Weight:             383.242
##########                DOCK_Rotatable_Bonds:                   4
##########                       Formal_Charge:           0.0199999
##########                     HBond_Acceptors:                   6
##########                        HBond_Donors:                   1
##########                         Heavy_Atoms:                  23
##########                          Grid_Score:          -28.335615
##########                     Grid_vdw_energy:          -27.389614
##########                      Grid_es_energy:           -0.946001
##########           Internal_energy_repulsive:           15.883320

@<TRIPOS>MOLECULE
ZINC000866034032
 42 44 1 0 0
SMALL
USER_CHARGES


@<TRIPOS>ATOM
      1 C1        -15.2891   -1.0668   54.5785 C.3     1  ZINC000866034032   -0.1300
      2 C2        -13.8162   -1.4555   54.7218 C.3     1  ZINC000866034032   -0.0800
      3 C3        -12.9811   -0.3714   55.4062 C.3     1  ZINC000866034032   -0.1300
      4 C4        -13.6065   -2.8583   55.3126 C.3     1  ZINC000866034032    0.1400
      5 H5        -14.4419   -3.2034   55.9217 H       1  ZINC000866034032    0.1100
      6 N6        -12.3120   -3.0252   55.9779 N.am    1  ZINC000866034032   -0.7000
      7 C7        -12.2040   -3.8379   57.0476 C.2     1  ZINC000866034032    0.5100
      8 O8        -13.1787   -4.4299   57.4603 O.2     1  ZINC000866034032   -0.5300
      9 C9        -10.8721   -4.0111   57.7310 C.3     1  ZINC000866034032   -0.1100
     10 C10       -10.7403   -2.9980   58.8389 C.ar    1  ZINC000866034032   -0.0500
     11 C11        -9.4944   -2.5076   59.1820 C.ar    1  ZINC000866034032   -0.0500
     12 C12        -9.3730   -1.5786   60.1984 C.ar    1  ZINC000866034032   -0.0900
     13 C13       -10.4984   -1.1395   60.8717 C.ar    1  ZINC000866034032   -0.0500
     14 Br14      -10.3330    0.1317   62.2618 Br      1  ZINC000866034032    0.0200
     15 C15       -11.7452   -1.6303   60.5276 C.ar    1  ZINC000866034032   -0.0200
     16 N16       -12.9501   -1.1604   61.2475 N.pl3   1  ZINC000866034032    0.0200
     17 O17       -14.0478   -1.5925   60.9444 O.2     1  ZINC000866034032   -0.1600
     18 O18       -12.8439   -0.3415   62.1429 O.2     1  ZINC000866034032   -0.1300
     19 C19       -11.8663   -2.5551   59.5078 C.ar    1  ZINC000866034032   -0.0300
     20 C20       -13.6326   -3.3971   53.8729 C.3     1  ZINC000866034032   -0.1500
     21 H21       -14.5947   -3.7563   53.5077 H       1  ZINC000866034032    0.1200
     22 C22       -12.4228   -4.3018   53.5487 C.3     1  ZINC000866034032   -0.1400
     23 C23       -11.3835   -3.3371   52.9369 C.3     1  ZINC000866034032    0.0500
     24 O24       -11.7342   -2.0373   53.4592 O.3     1  ZINC000866034032   -0.3600
     25 C25       -13.1913   -1.9813   53.4212 C.3     1  ZINC000866034032    0.0600
     26 H26       -13.6121   -1.6076   52.4878 H       1  ZINC000866034032    0.1000
     27 H27       -15.7997   -1.8011   53.9554 H       1  ZINC000866034032    0.0600
     28 H28       -15.7550   -1.0392   55.5635 H       1  ZINC000866034032    0.0700
     29 H29       -15.3618   -0.0832   54.1145 H       1  ZINC000866034032    0.0700
     30 H30       -13.2619   -0.3060   56.4574 H       1  ZINC000866034032    0.0600
     31 H31       -11.9236   -0.6237   55.3277 H       1  ZINC000866034032    0.0600
     32 H32       -13.1629    0.5877   54.9212 H       1  ZINC000866034032    0.0600
     33 H33       -11.5326   -2.5509   55.6486 H       1  ZINC000866034032    0.4100
     34 H34       -10.8055   -5.0161   58.1480 H       1  ZINC000866034032    0.1100
     35 H35       -10.0704   -3.8643   57.0071 H       1  ZINC000866034032    0.1200
     36 H36        -8.6156   -2.8507   58.6562 H       1  ZINC000866034032    0.1500
     37 H37        -8.3993   -1.1960   60.4670 H       1  ZINC000866034032    0.1600
     38 H38       -12.8397   -2.9380   59.2388 H       1  ZINC000866034032    0.1600
     39 H39       -12.0320   -4.7571   54.4587 H       1  ZINC000866034032    0.0800
     40 H40       -12.7028   -5.0692   52.8268 H       1  ZINC000866034032    0.0800
     41 H41       -10.3774   -3.6137   53.2520 H       1  ZINC000866034032    0.0900
     42 H42       -11.4560   -3.3412   51.8493 H       1  ZINC000866034032    0.0600
@<TRIPOS>BOND
     1     1     2    1
     2     1    27    1
     3     1    28    1
     4     1    29    1
     5     2    25    1
     6     2     3    1
     7     2     4    1
     8     3    30    1
     9     3    31    1
    10     3    32    1
    11     4     5    1
    12     4     6    1
    13     4    20    1
    14     6     7   am
    15     6    33    1
    16     7     8    2
    17     7     9    1
    18     9    10    1
    19     9    34    1
    20     9    35    1
    21    10    19   ar
    22    10    11   ar
    23    11    12   ar
    24    11    36    1
    25    12    13   ar
    26    12    37    1
    27    13    14    1
    28    13    15   ar
    29    15    16    1
    30    15    19   ar
    31    16    17    2
    32    16    18    2
    33    19    38    1
    34    20    21    1
    35    20    25    1
    36    20    22    1
    37    22    23    1
    38    22    39    1
    39    22    40    1
    40    23    24    1
    41    23    41    1
    42    23    42    1
    43    24    25    1
    44    25    26    1
@<TRIPOS>SUBSTRUCTURE
     1 ZINC000866034032        1 TEMP              0 ****  ****    0 ROOT


##########                                Name:    ZINC000516003207
##########                DOCK_Rotatable_Bonds:                   5
##########                         Heavy_Atoms:                  24
##########                    Molecular_Weight:             342.462
##########                DOCK_Rotatable_Bonds:                   5
##########                       Formal_Charge:          -0.0200001
##########                     HBond_Acceptors:                   5
##########                        HBond_Donors:                   1
##########                         Heavy_Atoms:                  24
##########                          Grid_Score:          -28.225273
##########                     Grid_vdw_energy:          -26.850712
##########                      Grid_es_energy:           -1.374561
##########           Internal_energy_repulsive:            9.740408

@<TRIPOS>MOLECULE
ZINC000516003207
 46 49 1 0 0
SMALL
USER_CHARGES


@<TRIPOS>ATOM
      1 C1         -9.0443    0.4400   63.5534 C.3     1  ZINC000516003207    0.0300
      2 O2         -9.6334   -0.7126   62.9480 O.3     1  ZINC000516003207   -0.3600
      3 C3         -9.1703   -0.9731   61.6215 C.3     1  ZINC000516003207    0.0900
      4 H4         -8.1425   -0.6482   61.4599 H       1  ZINC000516003207    0.0800
      5 C5         -9.4470   -2.4094   61.1414 C.3     1  ZINC000516003207   -0.1700
      6 C6        -10.7956   -1.8933   60.6076 C.3     1  ZINC000516003207    0.1500
      7 H7        -11.6057   -1.9533   61.3343 H       1  ZINC000516003207    0.1200
      8 N8        -11.1608   -2.4455   59.3005 N.am    1  ZINC000516003207   -0.7200
      9 C9        -12.4465   -2.7481   59.0324 C.2     1  ZINC000516003207    0.5600
     10 O10       -13.3032   -2.5616   59.8742 O.2     1  ZINC000516003207   -0.5300
     11 C11       -12.8149   -3.3071   57.7139 C.ar    1  ZINC000516003207   -0.1400
     12 C12       -13.7107   -4.3749   57.6320 C.ar    1  ZINC000516003207   -0.0800
     13 C13       -14.0545   -4.8973   56.4011 C.ar    1  ZINC000516003207   -0.1200
     14 C14       -13.5161   -4.3679   55.2448 C.ar    1  ZINC000516003207   -0.0800
     15 C15       -12.6204   -3.3008   55.3132 C.ar    1  ZINC000516003207   -0.0300
     16 C16       -12.0434   -2.7341   54.0695 C.2     1  ZINC000516003207    0.1100
     17 C17       -12.5015   -3.0451   52.8402 C.2     1  ZINC000516003207   -0.2600
     18 S18       -11.5391   -2.1552   51.6632 S.3     1  ZINC000516003207    0.1400
     19 C19       -10.6207   -1.4558   52.9236 C.2     1  ZINC000516003207    0.0600
     20 C20        -9.4876   -0.4826   52.7230 C.3     1  ZINC000516003207   -0.0800
     21 N21       -11.0360   -1.8732   54.0692 N.2     1  ZINC000516003207   -0.4700
     22 C22       -12.2731   -2.7655   56.5493 C.ar    1  ZINC000516003207   -0.0300
     23 C23       -10.1384   -0.5114   60.5317 C.3     1  ZINC000516003207   -0.1100
     24 C24       -10.9629    0.7661   60.6940 C.3     1  ZINC000516003207   -0.1200
     25 C25        -9.9296    1.4460   59.7773 C.3     1  ZINC000516003207   -0.1400
     26 C26        -9.6276    0.0495   59.2041 C.3     1  ZINC000516003207   -0.1200
     27 H27        -9.2722    1.3216   62.9543 H       1  ZINC000516003207    0.0400
     28 H28        -9.4477    0.5691   64.5578 H       1  ZINC000516003207    0.0900
     29 H29        -7.9638    0.3085   63.6100 H       1  ZINC000516003207    0.0400
     30 H30        -8.7679   -2.7458   60.3579 H       1  ZINC000516003207    0.0900
     31 H31        -9.5463   -3.1293   61.9538 H       1  ZINC000516003207    0.0800
     32 H32       -10.4773   -2.5931   58.6283 H       1  ZINC000516003207    0.4000
     33 H33       -14.1351   -4.7930   58.5328 H       1  ZINC000516003207    0.1300
     34 H34       -14.7474   -5.7238   56.3423 H       1  ZINC000516003207    0.1400
     35 H35       -13.7888   -4.7814   54.2851 H       1  ZINC000516003207    0.1300
     36 H36       -13.3142   -3.7204   52.6167 H       1  ZINC000516003207    0.1800
     37 H37        -9.3502   -0.2997   51.6573 H       1  ZINC000516003207    0.0800
     38 H38        -9.7215    0.4559   53.2256 H       1  ZINC000516003207    0.0900
     39 H39        -8.5716   -0.9002   53.1410 H       1  ZINC000516003207    0.0900
     40 H40       -11.5800   -1.9393   56.6070 H       1  ZINC000516003207    0.1500
     41 H41       -11.9596    0.7019   60.2575 H       1  ZINC000516003207    0.0800
     42 H42       -10.9689    1.1567   61.7116 H       1  ZINC000516003207    0.0800
     43 H43       -10.3725    2.1285   59.0521 H       1  ZINC000516003207    0.0700
     44 H44        -9.0911    1.8865   60.3169 H       1  ZINC000516003207    0.0800
     45 H45        -8.5669   -0.1326   59.0315 H       1  ZINC000516003207    0.0700
     46 H46       -10.2491   -0.2162   58.3489 H       1  ZINC000516003207    0.0900
@<TRIPOS>BOND
     1     1     2    1
     2     1    27    1
     3     1    28    1
     4     1    29    1
     5     2     3    1
     6     3     4    1
     7     3    23    1
     8     3     5    1
     9     5     6    1
    10     5    30    1
    11     5    31    1
    12     6     7    1
    13     6     8    1
    14     6    23    1
    15     8     9   am
    16     8    32    1
    17     9    10    2
    18     9    11    1
    19    11    22   ar
    20    11    12   ar
    21    12    13   ar
    22    12    33    1
    23    13    14   ar
    24    13    34    1
    25    14    15   ar
    26    14    35    1
    27    15    16    1
    28    15    22   ar
    29    16    21    1
    30    16    17    2
    31    17    18    1
    32    17    36    1
    33    18    19    1
    34    19    20    1
    35    19    21    2
    36    20    37    1
    37    20    38    1
    38    20    39    1
    39    22    40    1
    40    23    26    1
    41    23    24    1
    42    24    25    1
    43    24    41    1
    44    24    42    1
    45    25    26    1
    46    25    43    1
    47    25    44    1
    48    26    45    1
    49    26    46    1
@<TRIPOS>SUBSTRUCTURE
     1 ZINC000516003207        1 TEMP              0 ****  ****    0 ROOT


##########                                Name:    ZINC000186316242
##########                DOCK_Rotatable_Bonds:                   7
##########                         Heavy_Atoms:                  28
##########                    Molecular_Weight:             392.525
##########                DOCK_Rotatable_Bonds:                   7
##########                       Formal_Charge:         -0.00999981
##########                     HBond_Acceptors:                   6
##########                        HBond_Donors:                   0
##########                         Heavy_Atoms:                  28
##########                          Grid_Score:          -28.223530
##########                     Grid_vdw_energy:          -27.768419
##########                      Grid_es_energy:           -0.455111
##########           Internal_energy_repulsive:           26.092430

@<TRIPOS>MOLECULE
ZINC000186316242
 52 55 1 0 0
SMALL
USER_CHARGES


@<TRIPOS>ATOM
      1 C1        -11.2455   -2.3090   52.2148 C.3     1  ZINC000186316242   -0.1500
      2 C2        -12.6328   -2.7605   52.6757 C.3     1  ZINC000186316242    0.1000
      3 N3        -12.6756   -2.7895   54.1398 N.am    1  ZINC000186316242   -0.5900
      4 C4        -13.2661   -1.7848   54.8167 C.2     1  ZINC000186316242    0.5900
      5 O5        -13.3016   -1.8088   56.0322 O.2     1  ZINC000186316242   -0.5000
      6 C6        -13.8688   -0.6573   54.0843 C.2     1  ZINC000186316242    0.0100
      7 C7        -15.1726   -0.2929   54.2427 C.2     1  ZINC000186316242   -0.2100
      8 S8        -15.5022    1.0480   53.2337 S.3     1  ZINC000186316242    0.2000
      9 C9        -13.8426    1.0402   52.6488 C.2     1  ZINC000186316242    0.0700
     10 C10       -13.2832    1.9838   51.6565 C.ar    1  ZINC000186316242    0.1900
     11 C11       -11.9488    1.8688   51.2681 C.ar    1  ZINC000186316242   -0.1500
     12 C12       -11.4400    2.7590   50.3382 C.ar    1  ZINC000186316242   -0.0700
     13 C13       -12.2822    3.7358   49.8265 C.ar    1  ZINC000186316242   -0.1600
     14 C14       -13.5960    3.7927   50.2562 C.ar    1  ZINC000186316242    0.1100
     15 N15       -14.0572    2.9306   51.1383 N.ar    1  ZINC000186316242   -0.4500
     16 N16       -13.1834    0.0828   53.2258 N.2     1  ZINC000186316242   -0.3900
     17 C17       -12.0764   -3.9106   54.8681 C.3     1  ZINC000186316242    0.1400
     18 H18       -11.5879   -4.5941   54.1737 H       1  ZINC000186316242    0.1000
     19 C19       -13.1551   -4.6570   55.6861 C.3     1  ZINC000186316242   -0.1300
     20 C20       -12.4158   -4.9984   57.0042 C.3     1  ZINC000186316242    0.0400
     21 N21       -11.5709   -3.7999   57.2403 N.3     1  ZINC000186316242   -0.4900
     22 C22       -10.4606   -4.1096   58.1509 C.3     1  ZINC000186316242    0.0800
     23 C23       -10.4201   -3.0889   59.2589 C.ar    1  ZINC000186316242   -0.0700
     24 C24       -11.5892   -2.7064   59.8895 C.ar    1  ZINC000186316242   -0.1000
     25 C25       -11.5520   -1.7702   60.9058 C.ar    1  ZINC000186316242   -0.1200
     26 C26       -10.3455   -1.2168   61.2920 C.ar    1  ZINC000186316242   -0.1200
     27 C27        -9.1763   -1.6000   60.6620 C.ar    1  ZINC000186316242   -0.1200
     28 C28        -9.2129   -2.5394   59.6485 C.ar    1  ZINC000186316242   -0.1100
     29 C29       -11.0659   -3.3930   55.9086 C.3     1  ZINC000186316242    0.0400
     30 H30       -11.2138   -2.2874   51.1255 H       1  ZINC000186316242    0.0700
     31 H31       -11.0401   -1.3118   52.6041 H       1  ZINC000186316242    0.0500
     32 H32       -10.4945   -3.0060   52.5865 H       1  ZINC000186316242    0.0400
     33 H33       -13.3839   -2.0635   52.3041 H       1  ZINC000186316242    0.1200
     34 H34       -12.8384   -3.7577   52.2865 H       1  ZINC000186316242    0.0700
     35 H35       -15.8828   -0.7732   54.8995 H       1  ZINC000186316242    0.1900
     36 H36       -11.3212    1.0962   51.6873 H       1  ZINC000186316242    0.1400
     37 H37       -10.4105    2.6949   50.0184 H       1  ZINC000186316242    0.1400
     38 H38       -11.9152    4.4454   49.0998 H       1  ZINC000186316242    0.1400
     39 H39       -14.2536    4.5522   49.8598 H       1  ZINC000186316242    0.1600
     40 H40       -14.0096   -4.0085   55.8798 H       1  ZINC000186316242    0.0900
     41 H41       -13.4681   -5.5662   55.1727 H       1  ZINC000186316242    0.0700
     42 H42       -13.1263   -5.1349   57.8195 H       1  ZINC000186316242    0.0800
     43 H43       -11.7970   -5.8869   56.8792 H       1  ZINC000186316242    0.0400
     44 H44       -10.6059   -5.1024   58.5766 H       1  ZINC000186316242    0.0400
     45 H45        -9.5206   -4.0848   57.5996 H       1  ZINC000186316242    0.0800
     46 H46       -12.5318   -3.1387   59.5878 H       1  ZINC000186316242    0.1200
     47 H47       -12.4655   -1.4709   61.3980 H       1  ZINC000186316242    0.1200
     48 H48       -10.3164   -0.4848   62.0855 H       1  ZINC000186316242    0.1200
     49 H49        -8.2336   -1.1675   60.9635 H       1  ZINC000186316242    0.1200
     50 H50        -8.2994   -2.8388   59.1564 H       1  ZINC000186316242    0.1200
     51 H51       -10.0865   -3.8374   55.7312 H       1  ZINC000186316242    0.0500
     52 H52       -10.9993   -2.3065   55.8527 H       1  ZINC000186316242    0.0800
@<TRIPOS>BOND
     1     1     2    1
     2     1    30    1
     3     1    31    1
     4     1    32    1
     5     2     3    1
     6     2    33    1
     7     2    34    1
     8     3     4   am
     9     3    17    1
    10     4     5    2
    11     4     6    1
    12     6    16    1
    13     6     7    2
    14     7     8    1
    15     7    35    1
    16     8     9    1
    17     9    10    1
    18     9    16    2
    19    10    15   ar
    20    10    11   ar
    21    11    12   ar
    22    11    36    1
    23    12    13   ar
    24    12    37    1
    25    13    14   ar
    26    13    38    1
    27    14    15   ar
    28    14    39    1
    29    17    18    1
    30    17    29    1
    31    17    19    1
    32    19    20    1
    33    19    40    1
    34    19    41    1
    35    20    21    1
    36    20    42    1
    37    20    43    1
    38    21    22    1
    39    21    29    1
    40    22    23    1
    41    22    44    1
    42    22    45    1
    43    23    28   ar
    44    23    24   ar
    45    24    25   ar
    46    24    46    1
    47    25    26   ar
    48    25    47    1
    49    26    27   ar
    50    26    48    1
    51    27    28   ar
    52    27    49    1
    53    28    50    1
    54    29    51    1
    55    29    52    1
@<TRIPOS>SUBSTRUCTURE
     1 ZINC000186316242        1 TEMP              0 ****  ****    0 ROOT


##########                                Name:    ZINC000656860804
##########                DOCK_Rotatable_Bonds:                   2
##########                         Heavy_Atoms:                  19
##########                    Molecular_Weight:             388.068
##########                DOCK_Rotatable_Bonds:                   2
##########                       Formal_Charge:          8.9407e-08
##########                     HBond_Acceptors:                   8
##########                        HBond_Donors:                   1
##########                         Heavy_Atoms:                  19
##########                          Grid_Score:          -28.203526
##########                     Grid_vdw_energy:          -26.430254
##########                      Grid_es_energy:           -1.773273
##########           Internal_energy_repulsive:           17.456005

@<TRIPOS>MOLECULE
ZINC000656860804
 28 29 1 0 0
SMALL
USER_CHARGES


@<TRIPOS>ATOM
      1 O1        -12.5602    0.0743   63.1631 O.2     1  ZINC000656860804   -0.5400
      2 C2        -11.5582   -0.2108   62.5421 C.2     1  ZINC000656860804    0.5100
      3 C3        -11.7005   -1.0237   61.2842 C.3     1  ZINC000656860804    0.1100
      4 N4        -10.4282   -0.9882   60.5479 N.am    1  ZINC000656860804   -1.0000
      5 S5        -10.3891   -0.7868   58.9046 S.o2    1  ZINC000656860804    2.6900
      6 O6        -11.1412    0.3862   58.6261 O.2     1  ZINC000656860804   -0.9200
      7 O7         -9.0334   -0.9522   58.5122 O.2     1  ZINC000656860804   -0.9300
      8 C8        -11.2803   -2.1299   58.1931 C.ar    1  ZINC000656860804   -0.6500
      9 C9        -12.4525   -1.8916   57.5011 C.ar    1  ZINC000656860804    0.0100
     10 C10       -13.1527   -2.9459   56.9423 C.ar    1  ZINC000656860804   -0.0400
     11 Cl11      -14.6250   -2.6465   56.0725 Cl      1  ZINC000656860804   -0.0200
     12 C12       -12.6786   -4.2398   57.0764 C.ar    1  ZINC000656860804    0.0200
     13 Cl13      -13.5563   -5.5633   56.3750 Cl      1  ZINC000656860804   -0.0100
     14 C14       -11.5051   -4.4775   57.7692 C.ar    1  ZINC000656860804   -0.0900
     15 C15       -10.8032   -3.4222   58.3225 C.ar    1  ZINC000656860804    0.0100
     16 Br16       -9.1991   -3.7470   59.2696 Br      1  ZINC000656860804    0.0100
     17 C17        -9.1902   -1.1385   61.3311 C.3     1  ZINC000656860804    0.0900
     18 C18        -9.1081    0.0239   62.3224 C.3     1  ZINC000656860804    0.0800
     19 N19       -10.3812    0.2153   63.0028 N.am    1  ZINC000656860804   -0.7100
     20 H20       -11.9449   -2.0544   61.5414 H       1  ZINC000656860804    0.1200
     21 H21       -12.4926   -0.6026   60.6651 H       1  ZINC000656860804    0.1200
     22 H22       -12.8223   -0.8823   57.3969 H       1  ZINC000656860804    0.1700
     23 H23       -11.1351   -5.4866   57.8745 H       1  ZINC000656860804    0.1700
     24 H24        -9.2107   -2.0837   61.8736 H       1  ZINC000656860804    0.1000
     25 H25        -8.3281   -1.1150   60.6645 H       1  ZINC000656860804    0.1200
     26 H26        -8.3331   -0.1869   63.0592 H       1  ZINC000656860804    0.1000
     27 H27        -8.8520    0.9367   61.7844 H       1  ZINC000656860804    0.0800
     28 H28       -10.3722    0.6801   63.8542 H       1  ZINC000656860804    0.4000
@<TRIPOS>BOND
     1     1     2    2
     2     2    19   am
     3     2     3    1
     4     3     4    1
     5     3    20    1
     6     3    21    1
     7     4     5   am
     8     4    17    1
     9     5     6    2
    10     5     7    2
    11     5     8    1
    12     8    15   ar
    13     8     9   ar
    14     9    10   ar
    15     9    22    1
    16    10    11    1
    17    10    12   ar
    18    12    13    1
    19    12    14   ar
    20    14    15   ar
    21    14    23    1
    22    15    16    1
    23    17    18    1
    24    17    24    1
    25    17    25    1
    26    18    19    1
    27    18    26    1
    28    18    27    1
    29    19    28    1
@<TRIPOS>SUBSTRUCTURE
     1 ZINC000656860804        1 TEMP              0 ****  ****    0 ROOT


##########                                Name:    ZINC000252489163
##########                DOCK_Rotatable_Bonds:                   6
##########                         Heavy_Atoms:                  25
##########                    Molecular_Weight:             379.403
##########                DOCK_Rotatable_Bonds:                   6
##########                       Formal_Charge:          0.00999963
##########                     HBond_Acceptors:                  10
##########                        HBond_Donors:                   2
##########                         Heavy_Atoms:                  25
##########                          Grid_Score:          -28.178383
##########                     Grid_vdw_energy:          -26.110077
##########                      Grid_es_energy:           -2.068306
##########           Internal_energy_repulsive:           10.797857

@<TRIPOS>MOLECULE
ZINC000252489163
 45 46 1 0 0
SMALL
USER_CHARGES


@<TRIPOS>ATOM
      1 C1        -12.6691    1.8584   65.7251 C.3     1  ZINC000252489163   -0.1100
      2 C2        -11.3185    1.4743   65.1777 C.ar    1  ZINC000252489163   -0.0600
      3 C3        -11.1255    1.3923   63.8128 C.ar    1  ZINC000252489163   -0.1300
      4 C4         -9.8805    1.0387   63.3090 C.ar    1  ZINC000252489163    0.1700
      5 N5         -9.6815    0.9553   61.9263 N.am    1  ZINC000252489163   -0.6800
      6 C6         -9.8179   -0.2282   61.2960 C.2     1  ZINC000252489163    0.7100
      7 O7        -10.1139   -1.2234   61.9287 O.2     1  ZINC000252489163   -0.5500
      8 N8         -9.6262   -0.3085   59.9643 N.am    1  ZINC000252489163   -0.6200
      9 C9         -9.2681    0.8852   59.1862 C.3     1  ZINC000252489163    0.1000
     10 C10       -10.2616    1.0365   58.0301 C.3     1  ZINC000252489163   -0.1400
     11 C11       -10.2915   -0.2589   57.2157 C.3     1  ZINC000252489163   -0.1300
     12 C12       -10.7586   -1.4127   58.1062 C.3     1  ZINC000252489163    0.1400
     13 H13       -11.7481   -1.1874   58.5040 H       1  ZINC000252489163    0.0900
     14 N14       -10.8176   -2.6460   57.3177 N.am    1  ZINC000252489163   -1.1100
     15 S15       -12.2716   -3.1932   56.7440 S.o2    1  ZINC000252489163    2.6100
     16 C16       -12.8733   -1.8510   55.6823 C.3     1  ZINC000252489163   -0.6700
     17 O17       -11.9344   -4.3325   55.9646 O.2     1  ZINC000252489163   -0.9500
     18 O18       -13.0833   -3.3133   57.9042 O.2     1  ZINC000252489163   -0.9500
     19 C19        -9.7652   -1.5926   59.2641 C.3     1  ZINC000252489163    0.1100
     20 C20        -8.8336    0.7685   64.1801 C.ar    1  ZINC000252489163   -0.1000
     21 C21        -9.0332    0.8521   65.5444 C.ar    1  ZINC000252489163   -0.1600
     22 C22        -7.8975    0.5590   66.4907 C.3     1  ZINC000252489163    0.5100
     23 F23        -7.9560    1.4394   67.5763 F       1  ZINC000252489163   -0.1700
     24 F24        -8.0027   -0.7576   66.9518 F       1  ZINC000252489163   -0.1800
     25 F25        -6.6794    0.7231   65.8223 F       1  ZINC000252489163   -0.1800
     26 C26       -10.2724    1.2096   66.0427 C.ar    1  ZINC000252489163   -0.0900
     27 H27       -12.7231    2.9418   65.8318 H       1  ZINC000252489163    0.0800
     28 H28       -13.4477    1.5214   65.0410 H       1  ZINC000252489163    0.0700
     29 H29       -12.8131    1.3899   66.6987 H       1  ZINC000252489163    0.0700
     30 H30       -11.9419    1.6028   63.1377 H       1  ZINC000252489163    0.1300
     31 H31        -9.4453    1.7492   61.4215 H       1  ZINC000252489163    0.4100
     32 H32        -9.3154    1.7663   59.8263 H       1  ZINC000252489163    0.0800
     33 H33        -8.2593    0.7734   58.7890 H       1  ZINC000252489163    0.0800
     34 H34       -11.2557    1.2385   58.4286 H       1  ZINC000252489163    0.0700
     35 H35        -9.9513    1.8618   57.3893 H       1  ZINC000252489163    0.0900
     36 H36       -10.9793   -0.1454   56.3778 H       1  ZINC000252489163    0.0800
     37 H37        -9.2917   -0.4736   56.8380 H       1  ZINC000252489163    0.0800
     38 H38       -10.0051   -3.1420   57.1317 H       1  ZINC000252489163    0.4200
     39 H39       -12.1586   -1.6756   54.8783 H       1  ZINC000252489163    0.1300
     40 H40       -13.8377   -2.1287   55.2570 H       1  ZINC000252489163    0.1300
     41 H41       -12.9852   -0.9422   56.2737 H       1  ZINC000252489163    0.1300
     42 H42        -8.7985   -1.9070   58.8707 H       1  ZINC000252489163    0.0800
     43 H43       -10.1429   -2.3456   59.9559 H       1  ZINC000252489163    0.1100
     44 H44        -7.8644    0.4928   63.7915 H       1  ZINC000252489163    0.1800
     45 H45       -10.4257    1.2748   67.1097 H       1  ZINC000252489163    0.1300
@<TRIPOS>BOND
     1     1     2    1
     2     1    27    1
     3     1    28    1
     4     1    29    1
     5     2    26   ar
     6     2     3   ar
     7     3     4   ar
     8     3    30    1
     9     4     5    1
    10     4    20   ar
    11     5     6   am
    12     5    31    1
    13     6     7    2
    14     6     8   am
    15     8    19    1
    16     8     9    1
    17     9    10    1
    18     9    32    1
    19     9    33    1
    20    10    11    1
    21    10    34    1
    22    10    35    1
    23    11    12    1
    24    11    36    1
    25    11    37    1
    26    12    13    1
    27    12    14    1
    28    12    19    1
    29    14    15   am
    30    14    38    1
    31    15    16    1
    32    15    17    2
    33    15    18    2
    34    16    39    1
    35    16    40    1
    36    16    41    1
    37    19    42    1
    38    19    43    1
    39    20    21   ar
    40    20    44    1
    41    21    22    1
    42    21    26   ar
    43    22    23    1
    44    22    24    1
    45    22    25    1
    46    26    45    1
@<TRIPOS>SUBSTRUCTURE
     1 ZINC000252489163        1 TEMP              0 ****  ****    0 ROOT


##########                                Name:    ZINC000004040798
##########                DOCK_Rotatable_Bonds:                   3
##########                         Heavy_Atoms:                  22
##########                    Molecular_Weight:             361.151
##########                DOCK_Rotatable_Bonds:                   3
##########                       Formal_Charge:           0.0200003
##########                     HBond_Acceptors:                   6
##########                        HBond_Donors:                   1
##########                         Heavy_Atoms:                  22
##########                          Grid_Score:          -28.143057
##########                     Grid_vdw_energy:          -26.821053
##########                      Grid_es_energy:           -1.322005
##########           Internal_energy_repulsive:            7.254518

@<TRIPOS>MOLECULE
ZINC000004040798
 31 33 1 0 0
SMALL
USER_CHARGES


@<TRIPOS>ATOM
      1 O1        -10.8467   -0.3402   62.0072 O.2     1  ZINC000004040798   -0.4800
      2 C2         -9.6540   -0.3634   62.2464 C.2     1  ZINC000004040798    0.6100
      3 N3         -8.8056   -0.9605   61.3861 N.am    1  ZINC000004040798   -0.6600
      4 C4         -9.2968   -1.5586   60.2213 C.ar    1  ZINC000004040798    0.2300
      5 C5         -9.2778   -2.9405   60.0873 C.ar    1  ZINC000004040798   -0.1300
      6 C6         -9.7637   -3.5283   58.9354 C.ar    1  ZINC000004040798   -0.0100
      7 C7        -10.2686   -2.7424   57.9161 C.ar    1  ZINC000004040798   -0.0600
      8 N8        -10.7883   -3.3760   56.6835 N.pl3   1  ZINC000004040798    0.0300
      9 O9        -10.7707   -4.5884   56.5680 O.2     1  ZINC000004040798   -0.1500
     10 O10       -11.2335   -2.6851   55.7847 O.2     1  ZINC000004040798   -0.1500
     11 C11       -10.2899   -1.3656   58.0458 C.ar    1  ZINC000004040798    0.0000
     12 C12        -9.8104   -0.7713   59.1973 C.ar    1  ZINC000004040798   -0.1400
     13 Br13       -9.8396    1.1111   59.3740 Br      1  ZINC000004040798    0.0000
     14 C14        -9.1379    0.2650   63.4702 C.2     1  ZINC000004040798   -0.0500
     15 C15        -9.8879    0.6051   64.5504 C.2     1  ZINC000004040798   -0.0800
     16 C16        -8.9621    1.1938   65.5174 C.ar    1  ZINC000004040798   -0.1500
     17 C17        -9.1040    1.7304   66.7990 C.ar    1  ZINC000004040798   -0.0500
     18 C18        -8.0075    2.2136   67.4562 C.ar    1  ZINC000004040798   -0.1400
     19 C19        -6.7556    2.1748   66.8583 C.ar    1  ZINC000004040798   -0.0700
     20 C20        -6.5943    1.6493   65.5943 C.ar    1  ZINC000004040798   -0.1100
     21 C21        -7.6947    1.1514   64.9065 C.ar    1  ZINC000004040798    0.0800
     22 O22        -7.8461    0.5860   63.6930 O.3     1  ZINC000004040798   -0.1900
     23 H23        -7.8542   -0.9754   61.5749 H       1  ZINC000004040798    0.4300
     24 H24        -8.8832   -3.5553   60.8828 H       1  ZINC000004040798    0.1800
     25 H25        -9.7487   -4.6030   58.8308 H       1  ZINC000004040798    0.1700
     26 H26       -10.6850   -0.7545   57.2477 H       1  ZINC000004040798    0.1700
     27 H27       -10.9526    0.4688   64.6706 H       1  ZINC000004040798    0.1800
     28 H28       -10.0760    1.7636   67.2685 H       1  ZINC000004040798    0.1400
     29 H29        -8.1160    2.6288   68.4472 H       1  ZINC000004040798    0.1400
     30 H30        -5.8981    2.5610   67.3894 H       1  ZINC000004040798    0.1400
     31 H31        -5.6151    1.6242   65.1394 H       1  ZINC000004040798    0.1400
@<TRIPOS>BOND
     1     1     2    2
     2     2     3   am
     3     2    14    1
     4     3     4    1
     5     3    23    1
     6     4    12   ar
     7     4     5   ar
     8     5     6   ar
     9     5    24    1
    10     6     7   ar
    11     6    25    1
    12     7     8    1
    13     7    11   ar
    14     8     9    2
    15     8    10    2
    16    11    12   ar
    17    11    26    1
    18    12    13    1
    19    14    22    1
    20    14    15    2
    21    15    16    1
    22    15    27    1
    23    16    21   ar
    24    16    17   ar
    25    17    18   ar
    26    17    28    1
    27    18    19   ar
    28    18    29    1
    29    19    20   ar
    30    19    30    1
    31    20    21   ar
    32    20    31    1
    33    21    22    1
@<TRIPOS>SUBSTRUCTURE
     1 ZINC000004040798        1 TEMP              0 ****  ****    0 ROOT


##########                                Name:    ZINC000080099940
##########                DOCK_Rotatable_Bonds:                   4
##########                         Heavy_Atoms:                  26
##########                    Molecular_Weight:             343.388
##########                DOCK_Rotatable_Bonds:                   4
##########                       Formal_Charge:        -3.42727e-07
##########                     HBond_Acceptors:                   6
##########                        HBond_Donors:                   1
##########                         Heavy_Atoms:                  26
##########                          Grid_Score:          -27.991125
##########                     Grid_vdw_energy:          -26.160021
##########                      Grid_es_energy:           -1.831105
##########           Internal_energy_repulsive:            2.736567

@<TRIPOS>MOLECULE
ZINC000080099940
 43 46 1 0 0
SMALL
USER_CHARGES


@<TRIPOS>ATOM
      1 C1         -9.6056   -0.6648   62.2298 C.3     1  ZINC000080099940   -0.1100
      2 C2         -9.7618   -1.2930   60.8688 C.2     1  ZINC000080099940   -0.0700
      3 C3        -10.6876   -0.8118   59.9964 C.2     1  ZINC000080099940   -0.0900
      4 C4        -10.8195   -1.4124   58.7275 C.2     1  ZINC000080099940    0.2300
      5 N5        -11.6188   -1.1564   57.7024 N.2     1  ZINC000080099940   -0.4800
      6 C6        -11.3526   -2.0214   56.7108 C.2     1  ZINC000080099940    0.1000
      7 C7        -12.0304   -2.0665   55.3918 C.ar    1  ZINC000080099940   -0.0200
      8 C8        -13.4037   -1.8442   55.3048 C.ar    1  ZINC000080099940   -0.0800
      9 C9        -14.0315   -1.8861   54.0780 C.ar    1  ZINC000080099940   -0.1200
     10 C10       -13.2960   -2.1504   52.9285 C.ar    1  ZINC000080099940    0.1500
     11 N11       -13.9346   -2.1930   51.6860 N.am    1  ZINC000080099940   -0.6500
     12 C12       -13.8167   -1.1570   50.8320 C.2     1  ZINC000080099940    0.5700
     13 O13       -13.1555   -0.1861   51.1422 O.2     1  ZINC000080099940   -0.5000
     14 C14       -14.4948   -1.2022   49.5127 C.ar    1  ZINC000080099940    0.1300
     15 C15       -14.4708   -0.0945   48.6646 C.ar    1  ZINC000080099940   -0.1700
     16 C16       -15.1200   -0.1891   47.4417 C.ar    1  ZINC000080099940    0.1600
     17 N17       -15.7340   -1.3157   47.1240 N.ar    1  ZINC000080099940   -0.5000
     18 C18       -15.7374   -2.3446   47.9496 C.ar    1  ZINC000080099940    0.3200
     19 C19       -16.4514   -3.6075   47.5416 C.3     1  ZINC000080099940   -0.0900
     20 N20       -15.1312   -2.3022   49.1163 N.ar    1  ZINC000080099940   -0.5000
     21 C21       -11.9265   -2.3721   53.0130 C.ar    1  ZINC000080099940   -0.1400
     22 C22       -11.2939   -2.3258   54.2371 C.ar    1  ZINC000080099940   -0.0700
     23 C23       -10.3530   -2.8502   57.1231 C.2     1  ZINC000080099940   -0.0900
     24 N24       -10.0142   -2.4705   58.3919 N.pl3   1  ZINC000080099940   -0.3600
     25 C25        -9.0890   -2.9432   59.2777 C.2     1  ZINC000080099940    0.0600
     26 C26        -8.9479   -2.3746   60.4934 C.2     1  ZINC000080099940   -0.1400
     27 H27        -8.8175   -1.1796   62.7793 H       1  ZINC000080099940    0.0700
     28 H28        -9.3423    0.3868   62.1165 H       1  ZINC000080099940    0.0800
     29 H29       -10.5442   -0.7474   62.7779 H       1  ZINC000080099940    0.0800
     30 H30       -11.3160    0.0220   60.2730 H       1  ZINC000080099940    0.1500
     31 H31       -13.9757   -1.6395   56.1977 H       1  ZINC000080099940    0.1300
     32 H32       -15.0955   -1.7138   54.0101 H       1  ZINC000080099940    0.1400
     33 H33       -14.4623   -2.9681   51.4383 H       1  ZINC000080099940    0.4200
     34 H34       -13.9607    0.8128   48.9526 H       1  ZINC000080099940    0.1600
     35 H35       -15.1238    0.6473   46.7583 H       1  ZINC000080099940    0.1800
     36 H36       -15.7591   -4.2613   47.0113 H       1  ZINC000080099940    0.0900
     37 H37       -16.8244   -4.1171   48.4300 H       1  ZINC000080099940    0.0900
     38 H38       -17.2875   -3.3573   46.8884 H       1  ZINC000080099940    0.0900
     39 H39       -11.3570   -2.5772   52.1186 H       1  ZINC000080099940    0.1300
     40 H40       -10.2296   -2.4977   54.3021 H       1  ZINC000080099940    0.1400
     41 H41        -9.9116   -3.6556   56.5548 H       1  ZINC000080099940    0.1900
     42 H42        -8.4611   -3.7771   59.0010 H       1  ZINC000080099940    0.1700
     43 H43        -8.2116   -2.7584   61.1841 H       1  ZINC000080099940    0.1500
@<TRIPOS>BOND
     1     1     2    1
     2     1    27    1
     3     1    28    1
     4     1    29    1
     5     2    26    1
     6     2     3    2
     7     3     4    1
     8     3    30    1
     9     4    24    1
    10     4     5    2
    11     5     6    1
    12     6     7    1
    13     6    23    2
    14     7    22   ar
    15     7     8   ar
    16     8     9   ar
    17     8    31    1
    18     9    10   ar
    19     9    32    1
    20    10    11    1
    21    10    21   ar
    22    11    12   am
    23    11    33    1
    24    12    13    2
    25    12    14    1
    26    14    20   ar
    27    14    15   ar
    28    15    16   ar
    29    15    34    1
    30    16    17   ar
    31    16    35    1
    32    17    18   ar
    33    18    19    1
    34    18    20   ar
    35    19    36    1
    36    19    37    1
    37    19    38    1
    38    21    22   ar
    39    21    39    1
    40    22    40    1
    41    23    24    1
    42    23    41    1
    43    24    25    1
    44    25    26    2
    45    25    42    1
    46    26    43    1
@<TRIPOS>SUBSTRUCTURE
     1 ZINC000080099940        1 TEMP              0 ****  ****    0 ROOT


##########                                Name:    ZINC000002873519
##########                DOCK_Rotatable_Bonds:                   5
##########                         Heavy_Atoms:                  25
##########                    Molecular_Weight:             375.207
##########                DOCK_Rotatable_Bonds:                   5
##########                       Formal_Charge:               -0.02
##########                     HBond_Acceptors:                   6
##########                        HBond_Donors:                   0
##########                         Heavy_Atoms:                  25
##########                          Grid_Score:          -27.950293
##########                     Grid_vdw_energy:          -28.190882
##########                      Grid_es_energy:            0.240589
##########           Internal_energy_repulsive:            6.027704

@<TRIPOS>MOLECULE
ZINC000002873519
 37 39 1 0 0
SMALL
USER_CHARGES


@<TRIPOS>ATOM
      1 C1        -13.7423   -5.3213   56.1150 C.3     1  ZINC000002873519   -0.1500
      2 C2        -13.1797   -3.9523   55.8311 C.2     1  ZINC000002873519    0.4500
      3 O3        -12.8136   -3.6691   54.7150 O.2     1  ZINC000002873519   -0.4800
      4 O4        -13.0856   -3.0471   56.8186 O.3     1  ZINC000002873519   -0.2900
      5 C5        -12.4787   -1.8703   56.5200 C.ar    1  ZINC000002873519    0.1200
      6 C6        -13.1906   -0.8586   55.8975 C.ar    1  ZINC000002873519   -0.1100
      7 C7        -12.5725    0.3398   55.5940 C.ar    1  ZINC000002873519   -0.0800
      8 C8        -11.2370    0.5419   55.9085 C.ar    1  ZINC000002873519   -0.0400
      9 Cl9       -10.4774    2.0539   55.5203 Cl      1  ZINC000002873519   -0.0500
     10 C10       -10.5100   -0.4517   56.5281 C.ar    1  ZINC000002873519   -0.0800
     11 C11       -11.1250   -1.6703   56.8468 C.ar    1  ZINC000002873519   -0.0700
     12 C12       -10.3614   -2.7311   57.5051 C.2     1  ZINC000002873519    0.0400
     13 C13        -9.8814   -2.5430   58.7865 C.2     1  ZINC000002873519   -0.1900
     14 C14       -10.0404   -1.3574   59.6462 C.2     1  ZINC000002873519   -0.2000
     15 C15        -9.4036   -1.6356   60.8032 C.2     1  ZINC000002873519    0.1200
     16 C16        -9.3180   -0.7103   61.9505 C.ar    1  ZINC000002873519   -0.0400
     17 C17        -9.9988    0.5090   61.9205 C.ar    1  ZINC000002873519   -0.0800
     18 C18        -9.9147    1.3688   62.9953 C.ar    1  ZINC000002873519   -0.1100
     19 C19        -9.1570    1.0259   64.1027 C.ar    1  ZINC000002873519   -0.0200
     20 Cl20       -9.0563    2.1139   65.4517 Cl      1  ZINC000002873519   -0.0600
     21 C21        -8.4795   -0.1815   64.1387 C.ar    1  ZINC000002873519   -0.1100
     22 C22        -8.5605   -1.0530   63.0729 C.ar    1  ZINC000002873519   -0.0800
     23 O23        -8.8562   -2.8673   60.7768 O.3     1  ZINC000002873519   -0.2600
     24 C24        -9.0987   -3.4864   59.6074 C.2     1  ZINC000002873519    0.5200
     25 O25        -8.7360   -4.6026   59.2864 O.2     1  ZINC000002873519   -0.4200
     26 H26       -12.9345   -5.9926   56.4063 H       1  ZINC000002873519    0.1100
     27 H27       -14.4692   -5.2547   56.9244 H       1  ZINC000002873519    0.1000
     28 H28       -14.2299   -5.7066   55.2195 H       1  ZINC000002873519    0.1100
     29 H29       -14.2310   -1.0065   55.6483 H       1  ZINC000002873519    0.1500
     30 H30       -13.1336    1.1244   55.1082 H       1  ZINC000002873519    0.1500
     31 H31        -9.4701   -0.2903   56.7709 H       1  ZINC000002873519    0.1500
     32 H32       -10.1732   -3.6609   56.9890 H       1  ZINC000002873519    0.1500
     33 H33       -10.5629   -0.4451   59.3992 H       1  ZINC000002873519    0.1700
     34 H34       -10.5895    0.7778   61.0572 H       1  ZINC000002873519    0.1400
     35 H35       -10.4407    2.3119   62.9734 H       1  ZINC000002873519    0.1400
     36 H36        -7.8900   -0.4430   65.0050 H       1  ZINC000002873519    0.1400
     37 H37        -8.0317   -1.9943   63.1022 H       1  ZINC000002873519    0.1400
@<TRIPOS>BOND
     1     1     2    1
     2     1    26    1
     3     1    27    1
     4     1    28    1
     5     2     3    2
     6     2     4    1
     7     4     5    1
     8     5    11   ar
     9     5     6   ar
    10     6     7   ar
    11     6    29    1
    12     7     8   ar
    13     7    30    1
    14     8     9    1
    15     8    10   ar
    16    10    11   ar
    17    10    31    1
    18    11    12    1
    19    12    13    2
    20    12    32    1
    21    13    24    1
    22    13    14    1
    23    14    15    2
    24    14    33    1
    25    15    16    1
    26    15    23    1
    27    16    22   ar
    28    16    17   ar
    29    17    18   ar
    30    17    34    1
    31    18    19   ar
    32    18    35    1
    33    19    20    1
    34    19    21   ar
    35    21    22   ar
    36    21    36    1
    37    22    37    1
    38    23    24    1
    39    24    25    2
@<TRIPOS>SUBSTRUCTURE
     1 ZINC000002873519        1 TEMP              0 ****  ****    0 ROOT


##########                                Name:    ZINC000541315701
##########                DOCK_Rotatable_Bonds:                   4
##########                         Heavy_Atoms:                  25
##########                    Molecular_Weight:             422.709
##########                DOCK_Rotatable_Bonds:                   4
##########                       Formal_Charge:           0.0300003
##########                     HBond_Acceptors:                   6
##########                        HBond_Donors:                   0
##########                         Heavy_Atoms:                  25
##########                          Grid_Score:          -27.903765
##########                     Grid_vdw_energy:          -27.519148
##########                      Grid_es_energy:           -0.384616
##########           Internal_energy_repulsive:           16.190813

@<TRIPOS>MOLECULE
ZINC000541315701
 42 44 1 0 0
SMALL
USER_CHARGES


@<TRIPOS>ATOM
      1 C1        -14.4768   -4.8311   57.3048 C.3     1  ZINC000541315701    0.0800
      2 N2        -13.3379   -4.0202   56.8672 N.am    1  ZINC000541315701   -0.5700
      3 C3        -13.4250   -3.2899   55.7378 C.2     1  ZINC000541315701    0.5400
      4 O4        -14.4461   -3.3041   55.0837 O.2     1  ZINC000541315701   -0.5000
      5 C5        -12.2533   -2.4558   55.2876 C.3     1  ZINC000541315701   -0.1100
      6 H6        -11.7349   -2.0217   56.1425 H       1  ZINC000541315701    0.1300
      7 C7        -11.2839   -3.2879   54.4167 C.3     1  ZINC000541315701   -0.1500
      8 C8        -11.7419   -3.0266   52.9987 C.2     1  ZINC000541315701    0.5200
      9 O9        -11.4347   -3.6960   52.0351 O.2     1  ZINC000541315701   -0.5200
     10 N10       -12.5390   -1.9449   52.9623 N.am    1  ZINC000541315701   -0.6100
     11 C11       -13.1634   -1.4189   51.7458 C.3     1  ZINC000541315701    0.0900
     12 C12       -12.7037   -1.3581   54.2984 C.3     1  ZINC000541315701    0.1900
     13 H13       -13.7487   -1.1002   54.4708 H       1  ZINC000541315701    0.1100
     14 C14       -11.8350   -0.1352   54.4416 C.ar    1  ZINC000541315701   -0.0900
     15 C15       -10.7487    0.0425   53.6056 C.ar    1  ZINC000541315701   -0.1000
     16 C16        -9.9514    1.1645   53.7361 C.ar    1  ZINC000541315701   -0.1000
     17 C17       -10.2399    2.1088   54.7028 C.ar    1  ZINC000541315701   -0.1000
     18 C18       -11.3273    1.9316   55.5400 C.ar    1  ZINC000541315701   -0.0300
     19 Cl19      -11.6908    3.1178   56.7543 Cl      1  ZINC000541315701   -0.0600
     20 C20       -12.1279    0.8116   55.4053 C.ar    1  ZINC000541315701   -0.0900
     21 C21       -12.1638   -4.0039   57.6192 C.ar    1  ZINC000541315701    0.3800
     22 N22       -11.1894   -4.8521   57.3319 N.ar    1  ZINC000541315701   -0.4700
     23 C23       -10.0624   -4.8698   58.0178 C.ar    1  ZINC000541315701    0.1300
     24 C24        -9.8585   -3.9970   59.0680 C.ar    1  ZINC000541315701   -0.1600
     25 C25       -10.8557   -3.0908   59.4023 C.ar    1  ZINC000541315701   -0.0400
     26 C26       -12.0248   -3.0925   58.6610 C.ar    1  ZINC000541315701   -0.1300
     27 Br27      -13.4193   -1.8817   59.0676 Br      1  ZINC000541315701   -0.0200
     28 H28       -15.0053   -5.2159   56.4326 H       1  ZINC000541315701    0.0900
     29 H29       -14.1186   -5.6644   57.9094 H       1  ZINC000541315701    0.0800
     30 H30       -15.1538   -4.2165   57.8981 H       1  ZINC000541315701    0.0700
     31 H31       -10.2580   -2.9466   54.5552 H       1  ZINC000541315701    0.1200
     32 H32       -11.3699   -4.3478   54.6562 H       1  ZINC000541315701    0.1100
     33 H33       -12.8791   -2.0376   50.8947 H       1  ZINC000541315701    0.0900
     34 H34       -14.2475   -1.4324   51.8588 H       1  ZINC000541315701    0.0700
     35 H35       -12.8283   -0.3952   51.5790 H       1  ZINC000541315701    0.0600
     36 H36       -10.5224   -0.6957   52.8504 H       1  ZINC000541315701    0.1300
     37 H37        -9.1027    1.3027   53.0825 H       1  ZINC000541315701    0.1400
     38 H38        -9.6166    2.9849   54.8051 H       1  ZINC000541315701    0.1400
     39 H39       -12.9767    0.6728   56.0584 H       1  ZINC000541315701    0.1400
     40 H40        -9.2894   -5.5767   57.7545 H       1  ZINC000541315701    0.1700
     41 H41        -8.9327   -4.0192   59.6238 H       1  ZINC000541315701    0.1500
     42 H42       -10.7208   -2.3976   60.2194 H       1  ZINC000541315701    0.1500
@<TRIPOS>BOND
     1     1     2    1
     2     1    28    1
     3     1    29    1
     4     1    30    1
     5     2     3   am
     6     2    21    1
     7     3     4    2
     8     3     5    1
     9     5     6    1
    10     5    12    1
    11     5     7    1
    12     7     8    1
    13     7    31    1
    14     7    32    1
    15     8     9    2
    16     8    10   am
    17    10    11    1
    18    10    12    1
    19    11    33    1
    20    11    34    1
    21    11    35    1
    22    12    13    1
    23    12    14    1
    24    14    20   ar
    25    14    15   ar
    26    15    16   ar
    27    15    36    1
    28    16    17   ar
    29    16    37    1
    30    17    18   ar
    31    17    38    1
    32    18    19    1
    33    18    20   ar
    34    20    39    1
    35    21    26   ar
    36    21    22   ar
    37    22    23   ar
    38    23    24   ar
    39    23    40    1
    40    24    25   ar
    41    24    41    1
    42    25    26   ar
    43    25    42    1
    44    26    27    1
@<TRIPOS>SUBSTRUCTURE
     1 ZINC000541315701        1 TEMP              0 ****  ****    0 ROOT


##########                                Name:    ZINC001018118384
##########                DOCK_Rotatable_Bonds:                   5
##########                         Heavy_Atoms:                  25
##########                    Molecular_Weight:             347.374
##########                DOCK_Rotatable_Bonds:                   5
##########                       Formal_Charge:           0.0299997
##########                     HBond_Acceptors:                   9
##########                        HBond_Donors:                   2
##########                         Heavy_Atoms:                  25
##########                          Grid_Score:          -27.823256
##########                     Grid_vdw_energy:          -26.934656
##########                      Grid_es_energy:           -0.888599
##########           Internal_energy_repulsive:           98.714630

@<TRIPOS>MOLECULE
ZINC001018118384
 46 48 1 0 0
SMALL
USER_CHARGES


@<TRIPOS>ATOM
      1 C1         -9.9029   -3.0413   60.4968 C.3     1  ZINC001018118384   -0.0700
      2 C2        -10.2972   -3.3674   59.0793 C.2     1  ZINC001018118384    0.2200
      3 N3        -11.5119   -3.3578   58.6113 N.2     1  ZINC001018118384   -0.4600
      4 C4        -11.4794   -3.7028   57.2987 C.2     1  ZINC001018118384   -0.0700
      5 C5        -12.6399   -3.8113   56.3978 C.2     1  ZINC001018118384    0.6100
      6 O6        -12.9135   -4.8793   55.8842 O.2     1  ZINC001018118384   -0.5400
      7 N7        -13.3985   -2.7269   56.1425 N.am    1  ZINC001018118384   -0.5900
      8 C8        -13.0772   -1.4285   56.7506 C.3     1  ZINC001018118384    0.0700
      9 C9        -12.9649   -0.3786   55.6407 C.3     1  ZINC001018118384    0.1300
     10 H10       -12.8220    0.6065   56.0849 H       1  ZINC001018118384    0.1100
     11 N11       -11.8231   -0.6972   54.7800 N.am    1  ZINC001018118384   -0.7000
     12 C12       -11.1851    0.2865   54.1153 C.2     1  ZINC001018118384    0.6000
     13 O13       -11.5578    1.4373   54.2287 O.2     1  ZINC001018118384   -0.4900
     14 C14       -10.0288   -0.0356   53.2459 C.2     1  ZINC001018118384    0.0300
     15 C15        -9.7013   -1.2658   52.7586 C.2     1  ZINC001018118384   -0.2300
     16 C16        -8.5252   -1.0309   51.9921 C.2     1  ZINC001018118384    0.4800
     17 O17        -7.8766   -1.8537   51.3674 O.2     1  ZINC001018118384   -0.5200
     18 N18        -8.2774    0.2900   52.0994 N.am    1  ZINC001018118384   -0.4500
     19 C19        -7.1520    0.9790   51.4630 C.3     1  ZINC001018118384    0.1100
     20 O20        -9.1126    0.8305   52.7869 O.3     1  ZINC001018118384    0.0000
     21 C21       -14.2494   -0.3823   54.8087 C.3     1  ZINC001018118384   -0.1300
     22 C22       -14.4337   -1.7552   54.1581 C.3     1  ZINC001018118384   -0.1300
     23 C23       -14.5590   -2.8193   55.2463 C.3     1  ZINC001018118384    0.1400
     24 H24       -15.4706   -2.6501   55.8196 H       1  ZINC001018118384    0.0700
     25 C25       -14.6077   -4.2070   54.6036 C.3     1  ZINC001018118384   -0.1400
     26 C26       -10.1760   -3.9303   56.9657 C.2     1  ZINC001018118384    0.0400
     27 N27        -9.4417   -3.7131   58.0822 N.pl3   1  ZINC001018118384   -0.5600
     28 H28        -9.7062   -1.9726   60.5824 H       1  ZINC001018118384    0.0900
     29 H29       -10.7132   -3.3168   61.1718 H       1  ZINC001018118384    0.1000
     30 H30        -9.0042   -3.5985   60.7612 H       1  ZINC001018118384    0.0800
     31 H31       -13.8684   -1.1440   57.4441 H       1  ZINC001018118384    0.0800
     32 H32       -12.1291   -1.4994   57.2838 H       1  ZINC001018118384    0.1500
     33 H33       -11.5262   -1.6161   54.6884 H       1  ZINC001018118384    0.4100
     34 H34       -10.2153   -2.2022   52.9177 H       1  ZINC001018118384    0.1900
     35 H35        -7.4507    1.3257   50.4738 H       1  ZINC001018118384    0.0800
     36 H36        -6.8564    1.8325   52.0733 H       1  ZINC001018118384    0.0900
     37 H37        -6.3115    0.2914   51.3687 H       1  ZINC001018118384    0.1100
     38 H38       -15.1010   -0.1693   55.4547 H       1  ZINC001018118384    0.0900
     39 H39       -14.1820    0.3809   54.0334 H       1  ZINC001018118384    0.0800
     40 H40       -15.3363   -1.7499   53.5468 H       1  ZINC001018118384    0.0800
     41 H41       -13.5708   -1.9795   53.5312 H       1  ZINC001018118384    0.0600
     42 H42       -13.7021   -4.3683   54.0187 H       1  ZINC001018118384    0.0700
     43 H43       -14.6770   -4.9660   55.3827 H       1  ZINC001018118384    0.0800
     44 H44       -15.4784   -4.2751   53.9514 H       1  ZINC001018118384    0.0400
     45 H45        -9.8014   -4.2231   55.9961 H       1  ZINC001018118384    0.1900
     46 H46        -8.4783   -3.7960   58.1582 H       1  ZINC001018118384    0.4300
@<TRIPOS>BOND
     1     1     2    1
     2     1    28    1
     3     1    29    1
     4     1    30    1
     5     2    27    1
     6     2     3    2
     7     3     4    1
     8     4     5    1
     9     4    26    2
    10     5     6    2
    11     5     7   am
    12     7    23    1
    13     7     8    1
    14     8     9    1
    15     8    31    1
    16     8    32    1
    17     9    10    1
    18     9    11    1
    19     9    21    1
    20    11    12   am
    21    11    33    1
    22    12    13    2
    23    12    14    1
    24    14    20    1
    25    14    15    2
    26    15    16    1
    27    15    34    1
    28    16    17    2
    29    16    18   am
    30    18    19    1
    31    18    20    1
    32    19    35    1
    33    19    36    1
    34    19    37    1
    35    21    22    1
    36    21    38    1
    37    21    39    1
    38    22    23    1
    39    22    40    1
    40    22    41    1
    41    23    24    1
    42    23    25    1
    43    25    42    1
    44    25    43    1
    45    25    44    1
    46    26    27    1
    47    26    45    1
    48    27    46    1
@<TRIPOS>SUBSTRUCTURE
     1 ZINC001018118384        1 TEMP              0 ****  ****    0 ROOT


##########                                Name:    ZINC000426037318
##########                DOCK_Rotatable_Bonds:                   7
##########                         Heavy_Atoms:                  28
##########                    Molecular_Weight:             421.904
##########                DOCK_Rotatable_Bonds:                   7
##########                       Formal_Charge:         -0.00999981
##########                     HBond_Acceptors:                   9
##########                        HBond_Donors:                   1
##########                         Heavy_Atoms:                  28
##########                          Grid_Score:          -27.742804
##########                     Grid_vdw_energy:          -28.135414
##########                      Grid_es_energy:            0.392611
##########           Internal_energy_repulsive:           18.790510

@<TRIPOS>MOLECULE
ZINC000426037318
 48 50 1 0 0
SMALL
USER_CHARGES


@<TRIPOS>ATOM
      1 C1         -7.1151    3.1000   66.6559 C.3     1  ZINC000426037318    0.0300
      2 O2         -7.2967    1.7376   67.0469 O.3     1  ZINC000426037318   -0.3800
      3 C3         -6.9777    0.7919   66.0243 C.3     1  ZINC000426037318    0.1300
      4 C4         -8.1758    0.5934   65.1320 C.ar    1  ZINC000426037318    0.3900
      5 N5         -9.3742    0.9028   65.5936 N.ar    1  ZINC000426037318   -0.5700
      6 C6        -10.4578    0.7482   64.8517 C.ar    1  ZINC000426037318    0.4400
      7 O7        -11.6775    1.0711   65.3414 O.3     1  ZINC000426037318   -0.2800
      8 C8        -11.7108    1.8998   66.5050 C.3     1  ZINC000426037318    0.0300
      9 C9        -10.3220    0.2384   63.5322 C.ar    1  ZINC000426037318   -0.2000
     10 C10       -11.2974   -0.0144   62.5608 C.2     1  ZINC000426037318    0.0500
     11 C11       -12.7618    0.2444   62.8053 C.3     1  ZINC000426037318   -0.1200
     12 C12       -10.8421   -0.5012   61.3999 C.2     1  ZINC000426037318   -0.2700
     13 C13       -11.6865   -0.8366   60.2467 C.2     1  ZINC000426037318    0.6000
     14 O14       -11.9325    0.0085   59.4064 O.2     1  ZINC000426037318   -0.5000
     15 N15       -12.1891   -2.0806   60.1186 N.am    1  ZINC000426037318   -0.6600
     16 C16       -12.9947   -2.4007   59.0182 C.ar    1  ZINC000426037318    0.1200
     17 C17       -14.2319   -1.7911   58.8626 C.ar    1  ZINC000426037318   -0.0700
     18 C18       -15.0256   -2.1068   57.7771 C.ar    1  ZINC000426037318   -0.0900
     19 C19       -16.3687   -1.4444   57.6082 C.3     1  ZINC000426037318   -0.1100
     20 C20       -14.5871   -3.0329   56.8423 C.ar    1  ZINC000426037318    0.1300
     21 O21       -15.3692   -3.3425   55.7740 O.3     1  ZINC000426037318   -0.3100
     22 C22       -14.8089   -4.2154   54.7911 C.3     1  ZINC000426037318    0.0200
     23 C23       -13.3507   -3.6432   56.9963 C.ar    1  ZINC000426037318   -0.1800
     24 C24       -12.5531   -3.3248   58.0785 C.ar    1  ZINC000426037318   -0.0300
     25 Cl25      -11.0057   -4.0878   58.2713 Cl      1  ZINC000426037318   -0.0600
     26 S26        -9.0968   -0.6827   61.4457 S.3     1  ZINC000426037318    0.2200
     27 C27        -9.0269   -0.0733   63.0937 C.ar    1  ZINC000426037318    0.1300
     28 N28        -7.9934    0.1237   63.9193 N.ar    1  ZINC000426037318   -0.5000
     29 H29        -7.3782    3.7546   67.4868 H       1  ZINC000426037318    0.0900
     30 H30        -6.0731    3.2631   66.3807 H       1  ZINC000426037318    0.0500
     31 H31        -7.7553    3.3214   65.8019 H       1  ZINC000426037318    0.0500
     32 H32        -6.1417    1.1647   65.4325 H       1  ZINC000426037318    0.0900
     33 H33        -6.7038   -0.1590   66.4814 H       1  ZINC000426037318    0.0800
     34 H34       -11.2213    2.8494   66.2889 H       1  ZINC000426037318    0.0700
     35 H35       -12.7465    2.0820   66.7918 H       1  ZINC000426037318    0.1100
     36 H36       -11.1901    1.4003   67.3220 H       1  ZINC000426037318    0.0700
     37 H37       -13.0056    1.2636   62.5055 H       1  ZINC000426037318    0.0900
     38 H38       -13.3572   -0.4581   62.2222 H       1  ZINC000426037318    0.1000
     39 H39       -12.9817    0.1150   63.8650 H       1  ZINC000426037318    0.0800
     40 H40       -11.9928   -2.7544   60.7883 H       1  ZINC000426037318    0.4100
     41 H41       -14.5741   -1.0702   59.5904 H       1  ZINC000426037318    0.1600
     42 H42       -16.2523   -0.5303   57.0261 H       1  ZINC000426037318    0.0700
     43 H43       -17.0454   -2.1226   57.0883 H       1  ZINC000426037318    0.0700
     44 H44       -16.7798   -1.2014   58.5880 H       1  ZINC000426037318    0.0700
     45 H45       -13.9092   -3.7630   54.3739 H       1  ZINC000426037318    0.0600
     46 H46       -14.5550   -5.1688   55.2542 H       1  ZINC000426037318    0.0600
     47 H47       -15.5352   -4.3801   53.9951 H       1  ZINC000426037318    0.1000
     48 H48       -13.0099   -4.3642   56.2680 H       1  ZINC000426037318    0.1500
@<TRIPOS>BOND
     1     1     2    1
     2     1    29    1
     3     1    30    1
     4     1    31    1
     5     2     3    1
     6     3     4    1
     7     3    32    1
     8     3    33    1
     9     4    28   ar
    10     4     5   ar
    11     5     6   ar
    12     6     7    1
    13     6     9   ar
    14     7     8    1
    15     8    34    1
    16     8    35    1
    17     8    36    1
    18     9    27   ar
    19     9    10    1
    20    10    11    1
    21    10    12    2
    22    11    37    1
    23    11    38    1
    24    11    39    1
    25    12    13    1
    26    12    26    1
    27    13    14    2
    28    13    15   am
    29    15    16    1
    30    15    40    1
    31    16    24   ar
    32    16    17   ar
    33    17    18   ar
    34    17    41    1
    35    18    19    1
    36    18    20   ar
    37    19    42    1
    38    19    43    1
    39    19    44    1
    40    20    21    1
    41    20    23   ar
    42    21    22    1
    43    22    45    1
    44    22    46    1
    45    22    47    1
    46    23    24   ar
    47    23    48    1
    48    24    25    1
    49    26    27    1
    50    27    28   ar
@<TRIPOS>SUBSTRUCTURE
     1 ZINC000426037318        1 TEMP              0 ****  ****    0 ROOT


##########                                Name:    ZINC000455156110
##########                DOCK_Rotatable_Bonds:                   4
##########                         Heavy_Atoms:                  27
##########                    Molecular_Weight:             370.424
##########                DOCK_Rotatable_Bonds:                   4
##########                       Formal_Charge:           0.0100002
##########                     HBond_Acceptors:                   6
##########                        HBond_Donors:                   1
##########                         Heavy_Atoms:                  27
##########                          Grid_Score:          -27.664297
##########                     Grid_vdw_energy:          -27.368385
##########                      Grid_es_energy:           -0.295911
##########           Internal_energy_repulsive:           56.888474

@<TRIPOS>MOLECULE
ZINC000455156110
 50 53 1 0 0
SMALL
USER_CHARGES


@<TRIPOS>ATOM
      1 C1        -10.1720    0.7709   64.5662 C.3     1  ZINC000455156110    0.0300
      2 O2         -9.6006   -0.3231   63.8459 O.3     1  ZINC000455156110   -0.3100
      3 C3         -9.7116   -0.2953   62.4904 C.ar    1  ZINC000455156110    0.0900
      4 C4         -9.2249   -1.3496   61.7337 C.ar    1  ZINC000455156110   -0.1600
      5 C5         -9.3373   -1.3224   60.3567 C.ar    1  ZINC000455156110   -0.0800
      6 C6         -8.8073   -2.4691   59.5350 C.3     1  ZINC000455156110   -0.1100
      7 C7         -9.9384   -0.2396   59.7302 C.ar    1  ZINC000455156110    0.1500
      8 N8        -10.0530   -0.2128   58.3338 N.am    1  ZINC000455156110   -0.6700
      9 C9        -10.8902   -1.0650   57.7099 C.2     1  ZINC000455156110    0.7200
     10 O10       -11.5462   -1.8570   58.3587 O.2     1  ZINC000455156110   -0.5500
     11 N11       -11.0004   -1.0393   56.3669 N.am    1  ZINC000455156110   -0.5600
     12 C12       -11.8789   -1.9093   55.5783 C.3     1  ZINC000455156110    0.1000
     13 C13       -11.6443   -1.4948   54.1206 C.3     1  ZINC000455156110   -0.0200
     14 C14       -11.1052   -2.6746   53.3149 C.3     1  ZINC000455156110   -0.1400
     15 C15       -12.1836   -3.7591   53.2283 C.3     1  ZINC000455156110    0.0600
     16 O16       -13.3676   -3.2053   52.6505 O.3     1  ZINC000455156110   -0.3800
     17 C17       -13.9443   -2.1382   53.4063 C.3     1  ZINC000455156110    0.0600
     18 C18       -12.9424   -0.9832   53.5003 C.3     1  ZINC000455156110   -0.1400
     19 C19       -10.6205   -0.3897   54.1886 C.ar    1  ZINC000455156110   -0.1300
     20 C20       -10.0256    0.3640   53.1952 C.ar    1  ZINC000455156110   -0.0700
     21 C21        -9.0989    1.3370   53.5211 C.ar    1  ZINC000455156110   -0.1400
     22 C22        -8.7673    1.5552   54.8455 C.ar    1  ZINC000455156110   -0.0900
     23 C23        -9.3574    0.8053   55.8407 C.ar    1  ZINC000455156110   -0.1300
     24 C24       -10.2980   -0.1747   55.5207 C.ar    1  ZINC000455156110    0.1600
     25 C25       -10.4268    0.8170   60.4874 C.ar    1  ZINC000455156110   -0.1200
     26 C26       -10.3181    0.7872   61.8652 C.ar    1  ZINC000455156110    0.0900
     27 F27       -10.7933    1.8144   62.6029 F       1  ZINC000455156110   -0.1300
     28 H28       -10.0139    0.6246   65.6347 H       1  ZINC000455156110    0.1000
     29 H29        -9.6966    1.7003   64.2524 H       1  ZINC000455156110    0.0600
     30 H30       -11.2412    0.8223   64.3608 H       1  ZINC000455156110    0.0600
     31 H31        -8.7574   -2.1927   62.2205 H       1  ZINC000455156110    0.1400
     32 H32        -9.5918   -3.2140   59.4021 H       1  ZINC000455156110    0.0800
     33 H33        -8.4874   -2.1004   58.5604 H       1  ZINC000455156110    0.0600
     34 H34        -7.9591   -2.9223   60.0482 H       1  ZINC000455156110    0.0800
     35 H35        -9.5297    0.4190   57.8163 H       1  ZINC000455156110    0.4100
     36 H36       -11.6062   -2.9547   55.7233 H       1  ZINC000455156110    0.0800
     37 H37       -12.9205   -1.7469   55.8551 H       1  ZINC000455156110    0.0900
     38 H38       -10.8431   -2.3406   52.3110 H       1  ZINC000455156110    0.0800
     39 H39       -10.2210   -3.0786   53.8077 H       1  ZINC000455156110    0.0800
     40 H40       -11.8251   -4.5796   52.6067 H       1  ZINC000455156110    0.1000
     41 H41       -12.4066   -4.1308   54.2285 H       1  ZINC000455156110    0.0500
     42 H42       -14.8526   -1.7925   52.9127 H       1  ZINC000455156110    0.1000
     43 H43       -14.1866   -2.4919   54.4085 H       1  ZINC000455156110    0.0500
     44 H44       -13.3569   -0.1914   54.1243 H       1  ZINC000455156110    0.0800
     45 H45       -12.7406   -0.5939   52.5024 H       1  ZINC000455156110    0.0800
     46 H46       -10.2849    0.1924   52.1611 H       1  ZINC000455156110    0.1300
     47 H47        -8.6349    1.9247   52.7430 H       1  ZINC000455156110    0.1300
     48 H48        -8.0437    2.3152   55.1012 H       1  ZINC000455156110    0.1300
     49 H49        -9.0937    0.9802   56.8733 H       1  ZINC000455156110    0.1400
     50 H50       -10.8947    1.6598   60.0006 H       1  ZINC000455156110    0.1700
@<TRIPOS>BOND
     1     1     2    1
     2     1    28    1
     3     1    29    1
     4     1    30    1
     5     2     3    1
     6     3    26   ar
     7     3     4   ar
     8     4     5   ar
     9     4    31    1
    10     5     6    1
    11     5     7   ar
    12     6    32    1
    13     6    33    1
    14     6    34    1
    15     7     8    1
    16     7    25   ar
    17     8     9   am
    18     8    35    1
    19     9    10    2
    20     9    11   am
    21    11    24    1
    22    11    12    1
    23    12    13    1
    24    12    36    1
    25    12    37    1
    26    13    18    1
    27    13    14    1
    28    13    19    1
    29    14    15    1
    30    14    38    1
    31    14    39    1
    32    15    16    1
    33    15    40    1
    34    15    41    1
    35    16    17    1
    36    17    18    1
    37    17    42    1
    38    17    43    1
    39    18    44    1
    40    18    45    1
    41    19    24   ar
    42    19    20   ar
    43    20    21   ar
    44    20    46    1
    45    21    22   ar
    46    21    47    1
    47    22    23   ar
    48    22    48    1
    49    23    24   ar
    50    23    49    1
    51    25    26   ar
    52    25    50    1
    53    26    27    1
@<TRIPOS>SUBSTRUCTURE
     1 ZINC000455156110        1 TEMP              0 ****  ****    0 ROOT


##########                                Name:    ZINC000864477301
##########                DOCK_Rotatable_Bonds:                   6
##########                         Heavy_Atoms:                  26
##########                    Molecular_Weight:             393.891
##########                DOCK_Rotatable_Bonds:                   6
##########                       Formal_Charge:         -0.00999978
##########                     HBond_Acceptors:                   7
##########                        HBond_Donors:                   1
##########                         Heavy_Atoms:                  26
##########                          Grid_Score:          -27.608393
##########                     Grid_vdw_energy:          -27.469042
##########                      Grid_es_energy:           -0.139352
##########           Internal_energy_repulsive:            8.978349

@<TRIPOS>MOLECULE
ZINC000864477301
 46 47 1 0 0
SMALL
USER_CHARGES


@<TRIPOS>ATOM
      1 C1         -9.4156    0.2910   63.6202 C.3     1  ZINC000864477301   -0.1500
      2 C2         -9.8781    0.5174   62.1796 C.3     1  ZINC000864477301    0.0600
      3 O3        -10.2763   -0.7503   61.5942 O.3     1  ZINC000864477301   -0.3500
      4 C4        -10.7611   -0.7184   60.3378 C.2     1  ZINC000864477301    0.5100
      5 O5        -11.3892    0.2477   59.9535 O.2     1  ZINC000864477301   -0.5000
      6 C6        -10.5291   -1.8583   59.4274 C.ar    1  ZINC000864477301   -0.1400
      7 C7         -9.9217   -3.0224   59.9019 C.ar    1  ZINC000864477301   -0.0300
      8 C8         -9.7080   -4.0832   59.0461 C.ar    1  ZINC000864477301   -0.1500
      9 C9        -10.0935   -3.9952   57.7204 C.ar    1  ZINC000864477301   -0.0100
     10 C10       -10.6961   -2.8443   57.2434 C.ar    1  ZINC000864477301   -0.4900
     11 S11       -11.1832   -2.7430   55.5531 S.o     1  ZINC000864477301    1.3800
     12 O12       -11.2036   -1.3431   55.3097 O.2     1  ZINC000864477301   -0.8100
     13 C13       -12.8826   -3.3770   55.5794 C.3     1  ZINC000864477301   -0.4600
     14 H14       -12.8739   -4.4275   55.8698 H       1  ZINC000864477301    0.1400
     15 C15       -13.7101   -2.5761   56.5866 C.3     1  ZINC000864477301   -0.1400
     16 C16       -13.4911   -3.2401   54.2076 C.2     1  ZINC000864477301    0.5500
     17 O17       -13.5523   -4.2029   53.4725 O.2     1  ZINC000864477301   -0.5100
     18 N18       -13.9672   -2.0479   53.7974 N.am    1  ZINC000864477301   -0.6800
     19 C19       -14.5325   -1.9208   52.5231 C.ar    1  ZINC000864477301    0.1400
     20 C20       -15.9124   -1.9108   52.3722 C.ar    1  ZINC000864477301   -0.0600
     21 C21       -16.8041   -2.0370   53.5803 C.3     1  ZINC000864477301   -0.1100
     22 C22       -16.4674   -1.7847   51.1132 C.ar    1  ZINC000864477301   -0.1100
     23 C23       -15.6506   -1.6685   50.0040 C.ar    1  ZINC000864477301   -0.1000
     24 C24       -14.2752   -1.6784   50.1500 C.ar    1  ZINC000864477301   -0.1100
     25 C25       -13.7135   -1.7983   51.4068 C.ar    1  ZINC000864477301   -0.0200
     26 Cl26      -11.9872   -1.8101   51.5898 Cl      1  ZINC000864477301   -0.0600
     27 C27       -10.9214   -1.7786   58.0894 C.ar    1  ZINC000864477301    0.0100
     28 H28       -10.2327   -0.1368   64.2012 H       1  ZINC000864477301    0.0700
     29 H29        -8.5679   -0.3942   63.6263 H       1  ZINC000864477301    0.0700
     30 H30        -9.1166    1.2426   64.0597 H       1  ZINC000864477301    0.0800
     31 H31       -10.7257    1.2026   62.1735 H       1  ZINC000864477301    0.0700
     32 H32        -9.0610    0.9451   61.5986 H       1  ZINC000864477301    0.0700
     33 H33        -9.6196   -3.0922   60.9364 H       1  ZINC000864477301    0.1400
     34 H34        -9.2382   -4.9843   59.4118 H       1  ZINC000864477301    0.1400
     35 H35        -9.9232   -4.8283   57.0546 H       1  ZINC000864477301    0.1500
     36 H36       -14.7313   -2.9571   56.6025 H       1  ZINC000864477301    0.0700
     37 H37       -13.2700   -2.6751   57.5790 H       1  ZINC000864477301    0.0700
     38 H38       -13.7188   -1.5255   56.2962 H       1  ZINC000864477301    0.0700
     39 H39       -13.9182   -1.2778   54.3852 H       1  ZINC000864477301    0.4100
     40 H40       -17.0232   -1.0450   53.9755 H       1  ZINC000864477301    0.0800
     41 H41       -17.7346   -2.5282   53.2955 H       1  ZINC000864477301    0.0700
     42 H42       -16.2998   -2.6290   54.3441 H       1  ZINC000864477301    0.0700
     43 H43       -17.5409   -1.7774   50.9955 H       1  ZINC000864477301    0.1400
     44 H44       -16.0873   -1.5700   49.0212 H       1  ZINC000864477301    0.1400
     45 H45       -13.6397   -1.5876   49.2814 H       1  ZINC000864477301    0.1400
     46 H46       -11.3921   -0.8811   57.7160 H       1  ZINC000864477301    0.1400
@<TRIPOS>BOND
     1     1     2    1
     2     1    28    1
     3     1    29    1
     4     1    30    1
     5     2     3    1
     6     2    31    1
     7     2    32    1
     8     3     4    1
     9     4     5    2
    10     4     6    1
    11     6    27   ar
    12     6     7   ar
    13     7     8   ar
    14     7    33    1
    15     8     9   ar
    16     8    34    1
    17     9    10   ar
    18     9    35    1
    19    10    11    1
    20    10    27   ar
    21    11    12    2
    22    11    13    1
    23    13    14    1
    24    13    15    1
    25    13    16    1
    26    15    36    1
    27    15    37    1
    28    15    38    1
    29    16    17    2
    30    16    18   am
    31    18    19    1
    32    18    39    1
    33    19    25   ar
    34    19    20   ar
    35    20    21    1
    36    20    22   ar
    37    21    40    1
    38    21    41    1
    39    21    42    1
    40    22    23   ar
    41    22    43    1
    42    23    24   ar
    43    23    44    1
    44    24    25   ar
    45    24    45    1
    46    25    26    1
    47    27    46    1
@<TRIPOS>SUBSTRUCTURE
     1 ZINC000864477301        1 TEMP              0 ****  ****    0 ROOT


##########                                Name:    ZINC000942661662
##########                DOCK_Rotatable_Bonds:                   6
##########                         Heavy_Atoms:                  25
##########                    Molecular_Weight:             343.426
##########                DOCK_Rotatable_Bonds:                   6
##########                       Formal_Charge:           0.0399997
##########                     HBond_Acceptors:                   6
##########                        HBond_Donors:                   1
##########                         Heavy_Atoms:                  25
##########                          Grid_Score:          -27.510292
##########                     Grid_vdw_energy:          -26.067698
##########                      Grid_es_energy:           -1.442594
##########           Internal_energy_repulsive:           26.123833

@<TRIPOS>MOLECULE
ZINC000942661662
 50 52 1 0 0
SMALL
USER_CHARGES


@<TRIPOS>ATOM
      1 C1         -9.6752    1.2513   59.0994 C.3     1  ZINC000942661662   -0.1700
      2 C2        -10.2672    0.7209   60.4067 C.3     1  ZINC000942661662    0.1000
      3 N3        -11.4142   -0.1406   60.1093 N.am    1  ZINC000942661662   -0.6000
      4 C4        -12.6614    0.3699   60.1217 C.2     1  ZINC000942661662    0.6000
      5 O5        -12.8348    1.5456   60.3799 O.2     1  ZINC000942661662   -0.5200
      6 C6        -13.8154   -0.4967   59.8224 C.2     1  ZINC000942661662   -0.2400
      7 C7        -14.7116   -0.3539   58.8039 C.2     1  ZINC000942661662    0.0700
      8 C8        -14.6988    0.7376   57.7649 C.3     1  ZINC000942661662   -0.0900
      9 O9        -15.6030   -1.3465   58.8843 O.3     1  ZINC000942661662   -0.1700
     10 C10       -15.3325   -2.1502   59.9245 C.2     1  ZINC000942661662   -0.0300
     11 C11       -14.2374   -1.6992   60.5553 C.2     1  ZINC000942661662   -0.1900
     12 C12       -11.2053   -1.5569   59.7982 C.3     1  ZINC000942661662    0.1400
     13 H13       -11.8504   -2.1882   60.4092 H       1  ZINC000942661662    0.1100
     14 C14        -9.7148   -1.9507   59.9728 C.3     1  ZINC000942661662   -0.1400
     15 C15        -9.5572   -3.1442   59.0072 C.3     1  ZINC000942661662    0.1000
     16 N16       -10.6297   -3.0408   58.0069 N.am    1  ZINC000942661662   -0.6200
     17 C17       -10.8498   -3.9080   56.9988 C.2     1  ZINC000942661662    0.6100
     18 O18       -10.1272   -4.8774   56.8615 O.2     1  ZINC000942661662   -0.5200
     19 C19       -11.9604   -3.6832   56.0674 C.2     1  ZINC000942661662   -0.0600
     20 C20       -13.1618   -4.3593   56.0535 C.2     1  ZINC000942661662   -0.0700
     21 C21       -13.5785   -5.4643   56.9896 C.3     1  ZINC000942661662   -0.0900
     22 C22       -13.9212   -3.8260   55.0072 C.2     1  ZINC000942661662   -0.2100
     23 C23       -13.1866   -2.8552   54.4136 C.2     1  ZINC000942661662    0.0500
     24 C24       -13.6252   -2.0186   53.2393 C.3     1  ZINC000942661662   -0.0900
     25 N25       -11.9951   -2.7547   55.0517 N.pl3   1  ZINC000942661662   -0.5400
     26 C26       -11.4261   -1.8324   58.2899 C.3     1  ZINC000942661662    0.0900
     27 H27        -8.8217    1.8923   59.3207 H       1  ZINC000942661662    0.0700
     28 H28        -9.3502    0.4141   58.4817 H       1  ZINC000942661662    0.0600
     29 H29       -10.4317    1.8254   58.5645 H       1  ZINC000942661662    0.0600
     30 H30        -9.5106    0.1469   60.9416 H       1  ZINC000942661662    0.0900
     31 H31       -10.5921    1.5581   61.0245 H       1  ZINC000942661662    0.0800
     32 H32       -14.1020    0.4187   56.9104 H       1  ZINC000942661662    0.0900
     33 H33       -15.7190    0.9416   57.4398 H       1  ZINC000942661662    0.0900
     34 H34       -14.2662    1.6418   58.1931 H       1  ZINC000942661662    0.1000
     35 H35       -15.9023   -3.0235   60.2059 H       1  ZINC000942661662    0.2100
     36 H36       -13.7668   -2.1276   61.4279 H       1  ZINC000942661662    0.1600
     37 H37        -9.0618   -1.1286   59.6796 H       1  ZINC000942661662    0.1000
     38 H38        -9.5144   -2.2564   60.9997 H       1  ZINC000942661662    0.0900
     39 H39        -8.5857   -3.0972   58.5153 H       1  ZINC000942661662    0.0700
     40 H40        -9.6519   -4.0807   59.5567 H       1  ZINC000942661662    0.0700
     41 H41       -14.0776   -5.0354   57.8586 H       1  ZINC000942661662    0.0700
     42 H42       -14.2621   -6.1388   56.4741 H       1  ZINC000942661662    0.0600
     43 H43       -12.6971   -6.0178   57.3134 H       1  ZINC000942661662    0.0800
     44 H44       -14.9165   -4.1340   54.7228 H       1  ZINC000942661662    0.1400
     45 H45       -14.1294   -1.1221   53.6002 H       1  ZINC000942661662    0.0800
     46 H46       -12.7533   -1.7330   52.6508 H       1  ZINC000942661662    0.0700
     47 H47       -14.3101   -2.5954   52.6178 H       1  ZINC000942661662    0.0900
     48 H48       -11.2832   -2.1355   54.8267 H       1  ZINC000942661662    0.4100
     49 H49       -12.4811   -2.0173   58.0873 H       1  ZINC000942661662    0.0800
     50 H50       -11.0663   -0.9930   57.6949 H       1  ZINC000942661662    0.1000
@<TRIPOS>BOND
     1     1     2    1
     2     1    27    1
     3     1    28    1
     4     1    29    1
     5     2     3    1
     6     2    30    1
     7     2    31    1
     8     3     4   am
     9     3    12    1
    10     4     5    2
    11     4     6    1
    12     6    11    1
    13     6     7    2
    14     7     8    1
    15     7     9    1
    16     8    32    1
    17     8    33    1
    18     8    34    1
    19     9    10    1
    20    10    11    2
    21    10    35    1
    22    11    36    1
    23    12    13    1
    24    12    26    1
    25    12    14    1
    26    14    15    1
    27    14    37    1
    28    14    38    1
    29    15    16    1
    30    15    39    1
    31    15    40    1
    32    16    17   am
    33    16    26    1
    34    17    18    2
    35    17    19    1
    36    19    25    1
    37    19    20    2
    38    20    21    1
    39    20    22    1
    40    21    41    1
    41    21    42    1
    42    21    43    1
    43    22    23    2
    44    22    44    1
    45    23    24    1
    46    23    25    1
    47    24    45    1
    48    24    46    1
    49    24    47    1
    50    25    48    1
    51    26    49    1
    52    26    50    1
@<TRIPOS>SUBSTRUCTURE
     1 ZINC000942661662        1 TEMP              0 ****  ****    0 ROOT


##########                                Name:    ZINC001231746020
##########                DOCK_Rotatable_Bonds:                   3
##########                         Heavy_Atoms:                  19
##########                    Molecular_Weight:             348.667
##########                DOCK_Rotatable_Bonds:                   3
##########                       Formal_Charge:          -0.0399997
##########                     HBond_Acceptors:                   4
##########                        HBond_Donors:                   2
##########                         Heavy_Atoms:                  19
##########                          Grid_Score:          -27.466740
##########                     Grid_vdw_energy:          -22.041077
##########                      Grid_es_energy:           -5.425662
##########           Internal_energy_repulsive:           16.207129

@<TRIPOS>MOLECULE
ZINC001231746020
 38 39 1 0 0
SMALL
USER_CHARGES


@<TRIPOS>ATOM
      1 C1        -11.0122   -3.7171   53.6047 C.3     1  ZINC001231746020   -0.1500
      2 C2        -12.2326   -3.8892   54.5113 C.3     1  ZINC001231746020   -0.0900
      3 H3        -12.3314   -4.9368   54.7958 H       1  ZINC001231746020    0.0800
      4 C4        -12.0666   -3.0447   55.7464 C.3     1  ZINC001231746020   -0.1400
      5 C5        -12.7344   -3.6463   56.9960 C.3     1  ZINC001231746020   -0.0100
      6 N6        -14.0760   -4.2107   56.7354 N.4     1  ZINC001231746020   -0.3800
      7 H7        -13.9728   -5.1180   56.3062 H       1  ZINC001231746020    0.4100
      8 C8        -14.7862   -4.3642   58.0120 C.3     1  ZINC001231746020    0.0700
      9 C9        -15.0344   -3.0057   58.6154 C.ar    1  ZINC001231746020   -0.3100
     10 C10       -16.1788   -2.3034   58.2867 C.ar    1  ZINC001231746020   -0.0300
     11 C11       -16.4092   -1.0569   58.8391 C.ar    1  ZINC001231746020   -0.1600
     12 Cl12      -17.8466   -0.1756   58.4258 Cl      1  ZINC001231746020   -0.0800
     13 C13       -15.4900   -0.5110   59.7240 C.ar    1  ZINC001231746020    0.3100
     14 O14       -15.7141    0.7141   60.2690 O.3     1  ZINC001231746020   -0.6300
     15 C15       -14.3418   -1.2182   60.0517 C.ar    1  ZINC001231746020   -0.2100
     16 Br16      -13.0862   -0.4784   61.2569 Br      1  ZINC001231746020   -0.0600
     17 C17       -14.1196   -2.4664   59.5011 C.ar    1  ZINC001231746020   -0.0200
     18 C18       -14.8555   -3.3663   55.8630 C.3     1  ZINC001231746020   -0.0200
     19 C19       -14.7101   -3.9057   54.4308 C.3     1  ZINC001231746020   -0.1800
     20 C20       -13.5069   -3.4303   53.7591 C.3     1  ZINC001231746020    0.1000
     21 H21       -13.4845   -3.8249   52.7433 H       1  ZINC001231746020    0.0700
     22 O22       -13.5321   -2.0025   53.7063 O.3     1  ZINC001231746020   -0.5600
     23 H23       -10.1153   -4.0296   54.1395 H       1  ZINC001231746020    0.0600
     24 H24       -10.9177   -2.6698   53.3176 H       1  ZINC001231746020    0.0700
     25 H25       -11.1342   -4.3292   52.7111 H       1  ZINC001231746020    0.0600
     26 H26       -11.0019   -2.9218   55.9446 H       1  ZINC001231746020    0.1000
     27 H27       -12.5015   -2.0629   55.5590 H       1  ZINC001231746020    0.1000
     28 H28       -12.0937   -4.4363   57.3877 H       1  ZINC001231746020    0.1200
     29 H29       -12.8248   -2.8669   57.7526 H       1  ZINC001231746020    0.1200
     30 H30       -15.7391   -4.8648   57.8399 H       1  ZINC001231746020    0.1200
     31 H31       -14.1810   -4.9600   58.6952 H       1  ZINC001231746020    0.1200
     32 H32       -16.8938   -2.7288   57.5979 H       1  ZINC001231746020    0.1100
     33 H33       -13.2287   -3.0195   59.7598 H       1  ZINC001231746020    0.1100
     34 H34       -15.9031   -3.3933   56.1628 H       1  ZINC001231746020    0.1400
     35 H35       -14.4842   -2.3427   55.9119 H       1  ZINC001231746020    0.1300
     36 H36       -14.6838   -4.9948   54.4675 H       1  ZINC001231746020    0.0900
     37 H37       -15.5790   -3.5963   53.8499 H       1  ZINC001231746020    0.1100
     38 H38       -13.5326   -1.5768   54.5746 H       1  ZINC001231746020    0.3900
@<TRIPOS>BOND
     1     1     2    1
     2     1    23    1
     3     1    24    1
     4     1    25    1
     5     2     3    1
     6     2    20    1
     7     2     4    1
     8     4     5    1
     9     4    26    1
    10     4    27    1
    11     5     6    1
    12     5    28    1
    13     5    29    1
    14     6     7    1
    15     6     8    1
    16     6    18    1
    17     8     9    1
    18     8    30    1
    19     8    31    1
    20     9    17   ar
    21     9    10   ar
    22    10    11   ar
    23    10    32    1
    24    11    12    1
    25    11    13   ar
    26    13    14    1
    27    13    15   ar
    28    15    16    1
    29    15    17   ar
    30    17    33    1
    31    18    19    1
    32    18    34    1
    33    18    35    1
    34    19    20    1
    35    19    36    1
    36    19    37    1
    37    20    21    1
    38    20    22    1
    39    22    38    1
@<TRIPOS>SUBSTRUCTURE
     1 ZINC001231746020        1 TEMP              0 ****  ****    0 ROOT


##########                                Name:    ZINC000371438955
##########                DOCK_Rotatable_Bonds:                   4
##########                         Heavy_Atoms:                  25
##########                    Molecular_Weight:             387.499
##########                DOCK_Rotatable_Bonds:                   4
##########                       Formal_Charge:          -0.0299995
##########                     HBond_Acceptors:                   9
##########                        HBond_Donors:                   1
##########                         Heavy_Atoms:                  25
##########                          Grid_Score:          -27.412235
##########                     Grid_vdw_energy:          -26.569025
##########                      Grid_es_energy:           -0.843209
##########           Internal_energy_repulsive:           18.908318

@<TRIPOS>MOLECULE
ZINC000371438955
 47 49 1 0 0
SMALL
USER_CHARGES


@<TRIPOS>ATOM
      1 C1        -14.5671   -0.4796   50.9524 C.3     1  ZINC000371438955   -0.6800
      2 S2        -14.4163   -1.1533   52.6299 S.o2    1  ZINC000371438955    2.6000
      3 O3        -14.9771   -0.2571   53.5794 O.2     1  ZINC000371438955   -0.9500
      4 O4        -14.7455   -2.5356   52.6436 O.2     1  ZINC000371438955   -0.9500
      5 N5        -12.7909   -1.1174   52.9450 N.am    1  ZINC000371438955   -0.9900
      6 C6        -11.9028   -1.8595   52.0971 C.3     1  ZINC000371438955    0.1300
      7 C7        -11.8238   -3.2977   52.6360 C.3     1  ZINC000371438955   -0.1700
      8 C8        -10.9389   -3.3954   53.8074 C.3     1  ZINC000371438955    0.1400
      9 N9        -11.4120   -2.4969   54.8870 N.am    1  ZINC000371438955   -0.6200
     10 C10       -12.0804   -3.0051   55.9414 C.2     1  ZINC000371438955    0.7100
     11 O11       -12.2950   -4.2001   56.0065 O.2     1  ZINC000371438955   -0.5800
     12 N12       -12.5108   -2.1886   56.9235 N.am    1  ZINC000371438955   -0.7400
     13 C13       -13.2373   -2.7410   58.0695 C.3     1  ZINC000371438955    0.2000
     14 H14       -12.9745   -3.7937   58.1737 H       1  ZINC000371438955    0.1100
     15 C15       -14.7277   -2.6368   57.7963 C.3     1  ZINC000371438955   -0.1300
     16 C16       -15.4954   -3.2509   58.9755 C.3     1  ZINC000371438955   -0.1100
     17 S17       -15.3494   -2.1010   60.3735 S.3     1  ZINC000371438955   -0.1000
     18 C18       -13.6292   -1.7078   60.3717 C.ar    1  ZINC000371438955   -0.1100
     19 C19       -13.1089   -1.0612   61.4964 C.ar    1  ZINC000371438955    0.1100
     20 F20       -13.9202   -0.7710   62.5369 F       1  ZINC000371438955   -0.1300
     21 C21       -11.7743   -0.7173   61.5536 C.ar    1  ZINC000371438955   -0.1300
     22 C22       -10.9482   -1.0140   60.4845 C.ar    1  ZINC000371438955   -0.1000
     23 C23       -11.4584   -1.6539   59.3761 C.ar    1  ZINC000371438955   -0.1000
     24 C24       -12.8049   -2.0131   59.3083 C.ar    1  ZINC000371438955   -0.0800
     25 C25       -11.1585   -1.0853   54.8110 C.3     1  ZINC000371438955    0.1000
     26 C26       -12.2977   -0.3113   54.0951 C.3     1  ZINC000371438955    0.0900
     27 H27       -14.1708    0.5356   50.9316 H       1  ZINC000371438955    0.1300
     28 H28       -14.0042   -1.1036   50.2582 H       1  ZINC000371438955    0.1300
     29 H29       -15.6169   -0.4660   50.6593 H       1  ZINC000371438955    0.1300
     30 H30       -12.2885   -1.8685   51.0776 H       1  ZINC000371438955    0.0800
     31 H31       -10.9123   -1.4049   52.1131 H       1  ZINC000371438955    0.0800
     32 H32       -12.8239   -3.6266   52.9182 H       1  ZINC000371438955    0.0800
     33 H33       -11.4455   -3.9511   51.8498 H       1  ZINC000371438955    0.0900
     34 H34       -10.9329   -4.4233   54.1702 H       1  ZINC000371438955    0.0900
     35 H35        -9.9266   -3.1115   53.5195 H       1  ZINC000371438955    0.0700
     36 H36       -12.3396   -1.2353   56.8715 H       1  ZINC000371438955    0.4000
     37 H37       -15.0060   -1.5887   57.6860 H       1  ZINC000371438955    0.0900
     38 H38       -14.9697   -3.1782   56.8818 H       1  ZINC000371438955    0.1000
     39 H39       -16.5444   -3.3789   58.7086 H       1  ZINC000371438955    0.1200
     40 H40       -15.0591   -4.2141   59.2406 H       1  ZINC000371438955    0.1000
     41 H41       -11.3774   -0.2200   62.4262 H       1  ZINC000371438955    0.1400
     42 H42        -9.9032   -0.7437   60.5184 H       1  ZINC000371438955    0.1300
     43 H43       -10.8056   -1.8795   58.5458 H       1  ZINC000371438955    0.1400
     44 H44       -11.0456   -0.6924   55.8214 H       1  ZINC000371438955    0.0800
     45 H45       -10.2289   -0.9229   54.2656 H       1  ZINC000371438955    0.0900
     46 H46       -11.9184    0.6465   53.7391 H       1  ZINC000371438955    0.0800
     47 H47       -13.1165   -0.1410   54.7942 H       1  ZINC000371438955    0.1000
@<TRIPOS>BOND
     1     1     2    1
     2     1    27    1
     3     1    28    1
     4     1    29    1
     5     2     3    2
     6     2     4    2
     7     2     5   am
     8     5    26    1
     9     5     6    1
    10     6     7    1
    11     6    30    1
    12     6    31    1
    13     7     8    1
    14     7    32    1
    15     7    33    1
    16     8     9    1
    17     8    34    1
    18     8    35    1
    19     9    10   am
    20     9    25    1
    21    10    11    2
    22    10    12   am
    23    12    13    1
    24    12    36    1
    25    13    14    1
    26    13    24    1
    27    13    15    1
    28    15    16    1
    29    15    37    1
    30    15    38    1
    31    16    17    1
    32    16    39    1
    33    16    40    1
    34    17    18    1
    35    18    24   ar
    36    18    19   ar
    37    19    20    1
    38    19    21   ar
    39    21    22   ar
    40    21    41    1
    41    22    23   ar
    42    22    42    1
    43    23    24   ar
    44    23    43    1
    45    25    26    1
    46    25    44    1
    47    25    45    1
    48    26    46    1
    49    26    47    1
@<TRIPOS>SUBSTRUCTURE
     1 ZINC000371438955        1 TEMP              0 ****  ****    0 ROOT


##########                                Name:    ZINC000010935976
##########                DOCK_Rotatable_Bonds:                   3
##########                         Heavy_Atoms:                  26
##########                    Molecular_Weight:             391.558
##########                DOCK_Rotatable_Bonds:                   3
##########                       Formal_Charge:         -0.00999979
##########                     HBond_Acceptors:                   7
##########                        HBond_Donors:                   1
##########                         Heavy_Atoms:                  26
##########                          Grid_Score:          -27.365210
##########                     Grid_vdw_energy:          -25.627127
##########                      Grid_es_energy:           -1.738083
##########           Internal_energy_repulsive:          128.247421

@<TRIPOS>MOLECULE
ZINC000010935976
 51 54 1 0 0
SMALL
USER_CHARGES


@<TRIPOS>ATOM
      1 C1         -8.8400    0.7447   52.4757 C.3     1  ZINC000010935976   -0.0800
      2 C2         -9.3240    0.3079   53.8343 C.2     1  ZINC000010935976   -0.2100
      3 C3        -10.1058   -0.7326   54.0465 C.2     1  ZINC000010935976   -0.0400
      4 C4        -10.6071   -1.6124   52.9303 C.3     1  ZINC000010935976   -0.1000
      5 C5        -10.4457   -0.9654   55.4379 C.2     1  ZINC000010935976   -0.2300
      6 C6         -9.8651   -0.0230   56.2838 C.2     1  ZINC000010935976    0.0900
      7 N7        -10.0812   -0.0958   57.6122 N.2     1  ZINC000010935976   -0.4900
      8 C8        -10.8291   -1.0371   58.1359 C.2     1  ZINC000010935976    0.3400
      9 S9        -11.0701   -1.0728   59.8810 S.3     1  ZINC000010935976    0.0500
     10 C10       -12.6285   -0.1603   60.0019 C.3     1  ZINC000010935976   -0.1000
     11 H11       -13.3392   -0.5512   59.2736 H       1  ZINC000010935976    0.1400
     12 C12       -12.3775    1.3248   59.7294 C.3     1  ZINC000010935976   -0.1000
     13 C13       -11.0225    1.7483   60.2667 C.3     1  ZINC000010935976   -0.1300
     14 C14       -10.9229    1.7059   61.7806 C.3     1  ZINC000010935976   -0.1400
     15 C15       -11.0012    0.2662   62.2920 C.3     1  ZINC000010935976    0.0700
     16 N16       -12.4174   -0.0967   62.4627 N.am    1  ZINC000010935976   -0.7200
     17 C17       -13.1974   -0.3075   61.3975 C.2     1  ZINC000010935976    0.5400
     18 O18       -14.3615   -0.6110   61.5512 O.2     1  ZINC000010935976   -0.5200
     19 N19       -11.4258   -1.9896   57.3615 N.am    1  ZINC000010935976   -0.5100
     20 C20       -12.2543   -3.0238   57.9862 C.3     1  ZINC000010935976    0.1200
     21 C21       -13.7462   -2.7427   57.7121 C.3     1  ZINC000010935976   -0.1300
     22 C22       -14.0746   -3.6107   56.4721 C.3     1  ZINC000010935976   -0.1300
     23 C23       -13.2577   -4.9008   56.7317 C.3     1  ZINC000010935976   -0.1100
     24 C24       -11.9437   -4.3959   57.3628 C.3     1  ZINC000010935976   -0.1200
     25 C25       -11.2569   -1.9823   56.0250 C.2     1  ZINC000010935976    0.5600
     26 O26       -11.7873   -2.8308   55.3286 O.2     1  ZINC000010935976   -0.5000
     27 S27        -8.9138    1.1137   55.3366 S.3     1  ZINC000010935976    0.2100
     28 H28        -8.2070    1.6257   52.5814 H       1  ZINC000010935976    0.0700
     29 H29        -8.2670   -0.0615   52.0177 H       1  ZINC000010935976    0.0800
     30 H30        -9.6959    0.9858   51.8453 H       1  ZINC000010935976    0.0800
     31 H31        -9.9003   -2.4251   52.7628 H       1  ZINC000010935976    0.0700
     32 H32       -11.5784   -2.0257   53.2018 H       1  ZINC000010935976    0.0800
     33 H33       -10.7051   -1.0225   52.0189 H       1  ZINC000010935976    0.0700
     34 H34       -12.4090    1.5028   58.6545 H       1  ZINC000010935976    0.0900
     35 H35       -13.1558    1.9150   60.2131 H       1  ZINC000010935976    0.0900
     36 H36       -10.2613    1.0892   59.8493 H       1  ZINC000010935976    0.0700
     37 H37       -10.8185    2.7657   59.9330 H       1  ZINC000010935976    0.0800
     38 H38        -9.9744    2.1450   62.0898 H       1  ZINC000010935976    0.0800
     39 H39       -11.7414    2.2837   62.2099 H       1  ZINC000010935976    0.0700
     40 H40       -10.5364   -0.4045   61.5692 H       1  ZINC000010935976    0.1100
     41 H41       -10.4860    0.1897   63.2495 H       1  ZINC000010935976    0.0900
     42 H42       -12.7878   -0.1862   63.3548 H       1  ZINC000010935976    0.4000
     43 H43       -12.0700   -3.0512   59.0602 H       1  ZINC000010935976    0.1000
     44 H44       -14.3546   -3.0481   58.5634 H       1  ZINC000010935976    0.0800
     45 H45       -13.9011   -1.6868   57.4906 H       1  ZINC000010935976    0.0700
     46 H46       -15.1411   -3.8314   56.4266 H       1  ZINC000010935976    0.0600
     47 H47       -13.7413   -3.1199   55.5578 H       1  ZINC000010935976    0.1100
     48 H48       -13.7871   -5.5546   57.4247 H       1  ZINC000010935976    0.0600
     49 H49       -13.0560   -5.4197   55.7947 H       1  ZINC000010935976    0.0700
     50 H50       -11.1766   -4.2923   56.5955 H       1  ZINC000010935976    0.0800
     51 H51       -11.6094   -5.0894   58.1345 H       1  ZINC000010935976    0.0700
@<TRIPOS>BOND
     1     1     2    1
     2     1    28    1
     3     1    29    1
     4     1    30    1
     5     2    27    1
     6     2     3    2
     7     3     4    1
     8     3     5    1
     9     4    31    1
    10     4    32    1
    11     4    33    1
    12     5    25    1
    13     5     6    2
    14     6     7    1
    15     6    27    1
    16     7     8    2
    17     8     9    1
    18     8    19    1
    19     9    10    1
    20    10    11    1
    21    10    17    1
    22    10    12    1
    23    12    13    1
    24    12    34    1
    25    12    35    1
    26    13    14    1
    27    13    36    1
    28    13    37    1
    29    14    15    1
    30    14    38    1
    31    14    39    1
    32    15    16    1
    33    15    40    1
    34    15    41    1
    35    16    17   am
    36    16    42    1
    37    17    18    2
    38    19    20    1
    39    19    25   am
    40    20    24    1
    41    20    21    1
    42    20    43    1
    43    21    22    1
    44    21    44    1
    45    21    45    1
    46    22    23    1
    47    22    46    1
    48    22    47    1
    49    23    24    1
    50    23    48    1
    51    23    49    1
    52    24    50    1
    53    24    51    1
    54    25    26    2
@<TRIPOS>SUBSTRUCTURE
     1 ZINC000010935976        1 TEMP              0 ****  ****    0 ROOT


##########                                Name:    ZINC000446721380
##########                DOCK_Rotatable_Bonds:                   8
##########                         Heavy_Atoms:                  26
##########                    Molecular_Weight:             419.318
##########                DOCK_Rotatable_Bonds:                   8
##########                       Formal_Charge:           0.0199992
##########                     HBond_Acceptors:                   5
##########                        HBond_Donors:                   2
##########                         Heavy_Atoms:                  26
##########                          Grid_Score:          -27.275953
##########                     Grid_vdw_energy:          -26.827715
##########                      Grid_es_energy:           -0.448239
##########           Internal_energy_repulsive:          159.937317

@<TRIPOS>MOLECULE
ZINC000446721380
 49 51 1 0 0
SMALL
USER_CHARGES


@<TRIPOS>ATOM
      1 C1         -9.6927    2.0289   64.5913 C.3     1  ZINC000446721380   -0.1200
      2 C2        -10.6513    1.1939   63.7819 C.ar    1  ZINC000446721380   -0.0300
      3 C3        -11.9540    1.0254   64.2127 C.ar    1  ZINC000446721380   -0.1600
      4 C4        -12.8361    0.2598   63.4723 C.ar    1  ZINC000446721380   -0.0500
      5 C5        -12.4172   -0.3385   62.3000 C.ar    1  ZINC000446721380   -0.1500
      6 C6        -13.3791   -1.1723   61.4933 C.3     1  ZINC000446721380    0.1900
      7 N7        -14.3996   -0.3043   60.9008 N.am    1  ZINC000446721380   -0.7300
      8 C8        -15.0542   -0.6952   59.7893 C.2     1  ZINC000446721380    0.7100
      9 O9        -14.7987   -1.7690   59.2794 O.2     1  ZINC000446721380   -0.5700
     10 N10       -15.9919    0.1041   59.2433 N.am    1  ZINC000446721380   -0.6900
     11 C11       -16.6718   -0.3020   58.0889 C.ar    1  ZINC000446721380    0.2000
     12 C12       -16.3860   -1.5305   57.5093 C.ar    1  ZINC000446721380   -0.1200
     13 C13       -17.0590   -1.9287   56.3703 C.ar    1  ZINC000446721380   -0.0800
     14 C14       -18.0163   -1.1053   55.8073 C.ar    1  ZINC000446721380   -0.1300
     15 C15       -18.3034    0.1197   56.3816 C.ar    1  ZINC000446721380   -0.0700
     16 C16       -17.6382    0.5214   57.5239 C.ar    1  ZINC000446721380   -0.1300
     17 Br17      -18.0316    2.1961   58.3091 Br      1  ZINC000446721380   -0.0500
     18 C18       -11.1102   -0.1708   61.8654 C.ar    1  ZINC000446721380    0.1500
     19 O19       -10.6958   -0.7581   60.7120 O.3     1  ZINC000446721380   -0.3100
     20 C20        -9.9169   -1.9499   60.8343 C.3     1  ZINC000446721380    0.0700
     21 C21        -9.4903   -2.4253   59.4440 C.3     1  ZINC000446721380   -0.1200
     22 H22        -8.9298   -1.6444   58.9302 H       1  ZINC000446721380    0.1000
     23 C23       -10.7268   -2.8423   58.6110 C.3     1  ZINC000446721380   -0.1500
     24 C24       -10.2172   -4.1154   57.8885 C.3     1  ZINC000446721380    0.0500
     25 O25        -9.3856   -4.7553   58.8802 O.3     1  ZINC000446721380   -0.3800
     26 C26        -8.6498   -3.7127   59.5486 C.3     1  ZINC000446721380    0.0500
     27 C27       -10.2290    0.6021   62.6070 C.ar    1  ZINC000446721380   -0.2100
     28 H28        -9.7476    3.0666   64.2623 H       1  ZINC000446721380    0.0800
     29 H29        -9.9591    1.9676   65.6464 H       1  ZINC000446721380    0.0700
     30 H30        -8.6781    1.6563   64.4504 H       1  ZINC000446721380    0.0700
     31 H31       -12.2834    1.4921   65.1293 H       1  ZINC000446721380    0.1300
     32 H32       -13.8532    0.1294   63.8112 H       1  ZINC000446721380    0.1300
     33 H33       -12.8366   -1.6884   60.7011 H       1  ZINC000446721380    0.0800
     34 H34       -13.8578   -1.9051   62.1428 H       1  ZINC000446721380    0.0800
     35 H35       -14.6044    0.5518   61.3083 H       1  ZINC000446721380    0.4000
     36 H36       -16.1958    0.9607   59.6502 H       1  ZINC000446721380    0.4100
     37 H37       -15.6382   -2.1743   57.9481 H       1  ZINC000446721380    0.1500
     38 H38       -16.8366   -2.8843   55.9188 H       1  ZINC000446721380    0.1300
     39 H39       -18.5408   -1.4191   54.9169 H       1  ZINC000446721380    0.1300
     40 H40       -19.0513    0.7610   55.9390 H       1  ZINC000446721380    0.1400
     41 H41        -9.0312   -1.7449   61.4358 H       1  ZINC000446721380    0.0700
     42 H42       -10.5123   -2.7251   61.3167 H       1  ZINC000446721380    0.0700
     43 H43       -11.5720   -3.0747   59.2588 H       1  ZINC000446721380    0.0800
     44 H44       -10.9912   -2.0667   57.8922 H       1  ZINC000446721380    0.0900
     45 H45       -11.0516   -4.7604   57.6132 H       1  ZINC000446721380    0.1000
     46 H46        -9.6303   -3.8490   57.0094 H       1  ZINC000446721380    0.0600
     47 H47        -7.6850   -3.5694   59.0620 H       1  ZINC000446721380    0.0600
     48 H48        -8.5034   -3.9755   60.5962 H       1  ZINC000446721380    0.0900
     49 H49        -9.2111    0.7341   62.2708 H       1  ZINC000446721380    0.1300
@<TRIPOS>BOND
     1     1     2    1
     2     1    28    1
     3     1    29    1
     4     1    30    1
     5     2    27   ar
     6     2     3   ar
     7     3     4   ar
     8     3    31    1
     9     4     5   ar
    10     4    32    1
    11     5     6    1
    12     5    18   ar
    13     6     7    1
    14     6    33    1
    15     6    34    1
    16     7     8   am
    17     7    35    1
    18     8     9    2
    19     8    10   am
    20    10    11    1
    21    10    36    1
    22    11    16   ar
    23    11    12   ar
    24    12    13   ar
    25    12    37    1
    26    13    14   ar
    27    13    38    1
    28    14    15   ar
    29    14    39    1
    30    15    16   ar
    31    15    40    1
    32    16    17    1
    33    18    19    1
    34    18    27   ar
    35    19    20    1
    36    20    21    1
    37    20    41    1
    38    20    42    1
    39    21    22    1
    40    21    26    1
    41    21    23    1
    42    23    24    1
    43    23    43    1
    44    23    44    1
    45    24    25    1
    46    24    45    1
    47    24    46    1
    48    25    26    1
    49    26    47    1
    50    26    48    1
    51    27    49    1
@<TRIPOS>SUBSTRUCTURE
     1 ZINC000446721380        1 TEMP              0 ****  ****    0 ROOT


##########                                Name:    ZINC000828026236
##########                DOCK_Rotatable_Bonds:                   1
##########                         Heavy_Atoms:                  19
##########                    Molecular_Weight:             383.045
##########                DOCK_Rotatable_Bonds:                   1
##########                       Formal_Charge:                   0
##########                     HBond_Acceptors:                   5
##########                        HBond_Donors:                   0
##########                         Heavy_Atoms:                  19
##########                          Grid_Score:          -27.090919
##########                     Grid_vdw_energy:          -24.303333
##########                      Grid_es_energy:           -2.787586
##########           Internal_energy_repulsive:            3.932936

@<TRIPOS>MOLECULE
ZINC000828026236
 28 30 1 0 0
SMALL
USER_CHARGES


@<TRIPOS>ATOM
      1 N1         -8.1568   -0.9736   66.0781 N.1     1  ZINC000828026236   -0.3800
      2 C2         -8.7653   -0.0461   65.8335 C.1     1  ZINC000828026236    0.2600
      3 C3         -9.5324    1.1231   65.5250 C.ar    1  ZINC000828026236   -0.0500
      4 C4         -9.5860    2.1968   66.4206 C.ar    1  ZINC000828026236    0.0100
      5 C5        -10.3421    3.3045   66.0752 C.ar    1  ZINC000828026236   -0.1600
      6 Br6       -10.4515    4.7860   67.2453 Br      1  ZINC000828026236   -0.0100
      7 C7        -11.0165    3.3189   64.8671 C.ar    1  ZINC000828026236    0.1800
      8 N8        -10.9528    2.2960   64.0365 N.ar    1  ZINC000828026236   -0.5000
      9 C9        -10.2407    1.2156   64.3142 C.ar    1  ZINC000828026236    0.3600
     10 N10       -10.2028    0.1657   63.4127 N.3     1  ZINC000828026236   -0.4900
     11 C11        -9.0228    0.2615   62.5417 C.3     1  ZINC000828026236    0.0500
     12 C12        -8.8017   -1.0754   61.8227 C.3     1  ZINC000828026236    0.1100
     13 N13       -10.0735   -1.4902   61.2250 N.pl3   1  ZINC000828026236   -0.4400
     14 C14       -10.2954   -2.4242   60.2610 C.2     1  ZINC000828026236   -0.0300
     15 Br15       -8.9919   -3.4860   59.3954 Br      1  ZINC000828026236    0.0200
     16 C16       -11.6278   -2.4456   60.0429 C.2     1  ZINC000828026236    0.0300
     17 N17       -12.1987   -1.5431   60.8589 N.2     1  ZINC000828026236   -0.4700
     18 C18       -11.2774   -0.9676   61.5707 C.2     1  ZINC000828026236    0.2300
     19 C19       -11.4443    0.1036   62.6221 C.3     1  ZINC000828026236    0.1500
     20 H20        -9.0512    2.1625   67.3584 H       1  ZINC000828026236    0.1600
     21 H21       -11.6059    4.1833   64.5993 H       1  ZINC000828026236    0.1800
     22 H22        -9.1793    1.0487   61.8041 H       1  ZINC000828026236    0.0700
     23 H23        -8.1457    0.4989   63.1439 H       1  ZINC000828026236    0.1100
     24 H24        -8.0511   -0.9533   61.0419 H       1  ZINC000828026236    0.1100
     25 H25        -8.4694   -1.8273   62.5384 H       1  ZINC000828026236    0.1000
     26 H26       -12.1447   -3.0774   59.3358 H       1  ZINC000828026236    0.1800
     27 H27       -12.2826   -0.1464   63.2724 H       1  ZINC000828026236    0.1200
     28 H28       -11.6239    1.0656   62.1424 H       1  ZINC000828026236    0.1000
@<TRIPOS>BOND
     1     1     2    3
     2     2     3    1
     3     3     9   ar
     4     3     4   ar
     5     4     5   ar
     6     4    20    1
     7     5     6    1
     8     5     7   ar
     9     7     8   ar
    10     7    21    1
    11     8     9   ar
    12     9    10    1
    13    10    19    1
    14    10    11    1
    15    11    12    1
    16    11    22    1
    17    11    23    1
    18    12    13    1
    19    12    24    1
    20    12    25    1
    21    13    18    1
    22    13    14    1
    23    14    15    1
    24    14    16    2
    25    16    17    1
    26    16    26    1
    27    17    18    2
    28    18    19    1
    29    19    27    1
    30    19    28    1
@<TRIPOS>SUBSTRUCTURE
     1 ZINC000828026236        1 TEMP              0 ****  ****    0 ROOT


##########                                Name:    ZINC000431691749
##########                DOCK_Rotatable_Bonds:                   4
##########                         Heavy_Atoms:                  24
##########                    Molecular_Weight:             328.454
##########                DOCK_Rotatable_Bonds:                   4
##########                       Formal_Charge:         -0.00999957
##########                     HBond_Acceptors:                   4
##########                        HBond_Donors:                   0
##########                         Heavy_Atoms:                  24
##########                          Grid_Score:          -26.932484
##########                     Grid_vdw_energy:          -26.402302
##########                      Grid_es_energy:           -0.530183
##########           Internal_energy_repulsive:          113.562157

@<TRIPOS>MOLECULE
ZINC000431691749
 52 54 1 0 0
SMALL
USER_CHARGES


@<TRIPOS>ATOM
      1 C1        -10.1522   -0.6561   52.5990 C.3     1  ZINC000431691749   -0.1200
      2 C2        -11.2363   -0.8743   53.6227 C.ar    1  ZINC000431691749   -0.0800
      3 C3        -12.2860    0.0196   53.7189 C.ar    1  ZINC000431691749   -0.1200
      4 C4        -13.2806   -0.1805   54.6580 C.ar    1  ZINC000431691749   -0.1100
      5 C5        -13.2256   -1.2749   55.5005 C.ar    1  ZINC000431691749   -0.1100
      6 C6        -12.1761   -2.1697   55.4037 C.ar    1  ZINC000431691749   -0.0800
      7 C7        -12.1158   -3.3627   56.3224 C.3     1  ZINC000431691749    0.2000
      8 H8        -11.4715   -4.1255   55.8855 H       1  ZINC000431691749    0.1100
      9 N9        -11.5755   -2.9523   57.6208 N.am    1  ZINC000431691749   -0.5700
     10 C10       -10.8147   -3.7392   58.4071 C.2     1  ZINC000431691749    0.5200
     11 O11       -10.4617   -4.8769   58.1821 O.2     1  ZINC000431691749   -0.4400
     12 C12       -10.4913   -2.9053   59.6310 C.3     1  ZINC000431691749    0.0900
     13 H13       -10.8906   -3.3737   60.5306 H       1  ZINC000431691749    0.1300
     14 C14        -8.9804   -2.6998   59.7584 C.3     1  ZINC000431691749   -0.1500
     15 N15       -11.1712   -1.6253   59.3674 N.am    1  ZINC000431691749   -0.6000
     16 C16       -11.1857   -0.4465   60.2372 C.3     1  ZINC000431691749    0.1500
     17 C17       -12.6007    0.0311   60.6040 C.3     1  ZINC000431691749   -0.1600
     18 C18       -12.5253   -0.9224   61.8081 C.3     1  ZINC000431691749   -0.1400
     19 C19       -10.9965   -0.7778   61.7269 C.3     1  ZINC000431691749   -0.1500
     20 C20       -11.7715   -1.7481   58.1699 C.2     1  ZINC000431691749    0.7000
     21 O21       -12.4251   -0.8661   57.6482 O.2     1  ZINC000431691749   -0.5300
     22 C22       -13.5233   -3.9317   56.5125 C.3     1  ZINC000431691749   -0.0700
     23 C23       -13.4448   -5.4542   56.6420 C.3     1  ZINC000431691749   -0.1400
     24 C24       -14.1442   -3.3434   57.7810 C.3     1  ZINC000431691749   -0.1400
     25 C25       -14.3884   -3.5665   55.3045 C.3     1  ZINC000431691749   -0.1600
     26 C26       -11.1840   -1.9718   54.4619 C.ar    1  ZINC000431691749   -0.1100
     27 H27       -10.4264   -1.1522   51.6680 H       1  ZINC000431691749    0.0700
     28 H28       -10.0315    0.4122   52.4196 H       1  ZINC000431691749    0.0700
     29 H29        -9.2144   -1.0706   52.9690 H       1  ZINC000431691749    0.0700
     30 H30       -12.3291    0.8748   53.0606 H       1  ZINC000431691749    0.1200
     31 H31       -14.1005    0.5184   54.7336 H       1  ZINC000431691749    0.1200
     32 H32       -14.0022   -1.4310   56.2346 H       1  ZINC000431691749    0.1100
     33 H33        -8.6036   -2.2090   58.8612 H       1  ZINC000431691749    0.0700
     34 H34        -8.7706   -2.0774   60.6284 H       1  ZINC000431691749    0.0800
     35 H35        -8.4910   -3.6665   59.8768 H       1  ZINC000431691749    0.0800
     36 H36       -10.5331    0.3505   59.8808 H       1  ZINC000431691749    0.1000
     37 H37       -12.6476    1.0837   60.8828 H       1  ZINC000431691749    0.0900
     38 H38       -13.3590   -0.2484   59.8725 H       1  ZINC000431691749    0.0700
     39 H39       -12.9552   -0.5087   62.7202 H       1  ZINC000431691749    0.0700
     40 H40       -12.8808   -1.9296   61.5904 H       1  ZINC000431691749    0.0800
     41 H41       -10.4597   -1.7102   61.9021 H       1  ZINC000431691749    0.1000
     42 H42       -10.6049    0.0538   62.3128 H       1  ZINC000431691749    0.0900
     43 H43       -12.8284   -5.7143   57.5025 H       1  ZINC000431691749    0.0600
     44 H44       -14.4474   -5.8595   56.7774 H       1  ZINC000431691749    0.0600
     45 H45       -13.0024   -5.8734   55.7383 H       1  ZINC000431691749    0.0600
     46 H46       -14.2001   -2.2587   57.6888 H       1  ZINC000431691749    0.0500
     47 H47       -15.1469   -3.7487   57.9165 H       1  ZINC000431691749    0.0600
     48 H48       -13.5279   -3.6035   58.6416 H       1  ZINC000431691749    0.0500
     49 H49       -13.7495   -3.3974   54.4379 H       1  ZINC000431691749    0.0700
     50 H50       -15.0796   -4.3823   55.0928 H       1  ZINC000431691749    0.0400
     51 H51       -14.9525   -2.6597   55.5225 H       1  ZINC000431691749    0.1000
     52 H52       -10.3642   -2.6709   54.3862 H       1  ZINC000431691749    0.1300
@<TRIPOS>BOND
     1     1     2    1
     2     1    27    1
     3     1    28    1
     4     1    29    1
     5     2    26   ar
     6     2     3   ar
     7     3     4   ar
     8     3    30    1
     9     4     5   ar
    10     4    31    1
    11     5     6   ar
    12     5    32    1
    13     6     7    1
    14     6    26   ar
    15     7     8    1
    16     7     9    1
    17     7    22    1
    18     9    20   am
    19     9    10   am
    20    10    11    2
    21    10    12    1
    22    12    13    1
    23    12    14    1
    24    12    15    1
    25    14    33    1
    26    14    34    1
    27    14    35    1
    28    15    16    1
    29    15    20   am
    30    16    19    1
    31    16    17    1
    32    16    36    1
    33    17    18    1
    34    17    37    1
    35    17    38    1
    36    18    19    1
    37    18    39    1
    38    18    40    1
    39    19    41    1
    40    19    42    1
    41    20    21    2
    42    22    23    1
    43    22    24    1
    44    22    25    1
    45    23    43    1
    46    23    44    1
    47    23    45    1
    48    24    46    1
    49    24    47    1
    50    24    48    1
    51    25    49    1
    52    25    50    1
    53    25    51    1
    54    26    52    1
@<TRIPOS>SUBSTRUCTURE
     1 ZINC000431691749        1 TEMP              0 ****  ****    0 ROOT


##########                                Name:    ZINC000653668607
##########                DOCK_Rotatable_Bonds:                   5
##########                         Heavy_Atoms:                  28
##########                    Molecular_Weight:             379.459
##########                DOCK_Rotatable_Bonds:                   5
##########                       Formal_Charge:          0.00999918
##########                     HBond_Acceptors:                   6
##########                        HBond_Donors:                   2
##########                         Heavy_Atoms:                  28
##########                          Grid_Score:          -26.837835
##########                     Grid_vdw_energy:          -26.698942
##########                      Grid_es_energy:           -0.138893
##########           Internal_energy_repulsive:            9.805124

@<TRIPOS>MOLECULE
ZINC000653668607
 53 56 1 0 0
SMALL
USER_CHARGES


@<TRIPOS>ATOM
      1 C1         -8.7656   -3.1101   60.4164 C.3     1  ZINC000653668607    0.0300
      2 O2         -9.1747   -1.7757   60.1100 O.3     1  ZINC000653668607   -0.3200
      3 C3         -9.9528   -1.1430   61.0270 C.ar    1  ZINC000653668607    0.1300
      4 C4         -9.3688   -0.4382   62.0695 C.ar    1  ZINC000653668607   -0.2000
      5 C5        -10.1673    0.2026   62.9929 C.ar    1  ZINC000653668607   -0.0800
      6 C6        -11.5515    0.1493   62.8895 C.ar    1  ZINC000653668607   -0.1000
      7 C7        -12.3600    0.8854   63.9260 C.3     1  ZINC000653668607   -0.0800
      8 C8        -13.8038    0.3875   63.9343 C.3     1  ZINC000653668607   -0.1200
      9 C9        -14.3367    0.4248   62.4970 C.3     1  ZINC000653668607   -0.1100
     10 C10       -13.6271   -0.6617   61.6918 C.3     1  ZINC000653668607   -0.0600
     11 H11       -13.9583   -1.6404   62.0390 H       1  ZINC000653668607    0.1000
     12 C12       -13.9760   -0.5075   60.2339 C.2     1  ZINC000653668607    0.5200
     13 O13       -14.0737    0.5993   59.7475 O.2     1  ZINC000653668607   -0.5100
     14 N14       -14.1794   -1.5994   59.4705 N.am    1  ZINC000653668607   -0.6700
     15 C15       -14.5033   -1.4562   58.1169 C.ar    1  ZINC000653668607    0.1500
     16 C16       -15.6460   -0.7593   57.7453 C.ar    1  ZINC000653668607   -0.1100
     17 C17       -15.9666   -0.6176   56.4087 C.ar    1  ZINC000653668607   -0.0900
     18 C18       -15.1524   -1.1681   55.4380 C.ar    1  ZINC000653668607   -0.1200
     19 C19       -14.0083   -1.8667   55.8031 C.ar    1  ZINC000653668607    0.1700
     20 N20       -13.1842   -2.4245   54.8191 N.am    1  ZINC000653668607   -0.5800
     21 C21       -13.1212   -3.8800   54.6773 C.3     1  ZINC000653668607    0.1100
     22 C22       -12.8083   -4.2301   53.2186 C.3     1  ZINC000653668607   -0.1500
     23 C23       -11.5166   -3.5133   52.8112 C.3     1  ZINC000653668607    0.1100
     24 N24       -11.6668   -2.0776   53.0542 N.am    1  ZINC000653668607   -0.7400
     25 C25       -12.4725   -1.6143   54.0214 C.2     1  ZINC000653668607    0.7100
     26 O26       -12.5531   -0.4126   54.1883 O.2     1  ZINC000653668607   -0.5800
     27 C27       -13.6803   -2.0054   57.1438 C.ar    1  ZINC000653668607   -0.1300
     28 C28       -12.1338   -0.5546   61.8585 C.ar    1  ZINC000653668607   -0.0300
     29 C29       -11.3326   -1.1937   60.9227 C.ar    1  ZINC000653668607   -0.1500
     30 H30        -8.1877   -3.1098   61.3406 H       1  ZINC000653668607    0.0600
     31 H31        -9.6460   -3.7411   60.5385 H       1  ZINC000653668607    0.0600
     32 H32        -8.1510   -3.4974   59.6036 H       1  ZINC000653668607    0.1000
     33 H33        -8.2935   -0.3921   62.1576 H       1  ZINC000653668607    0.1300
     34 H34        -9.7122    0.7510   63.8045 H       1  ZINC000653668607    0.1300
     35 H35       -11.9180    0.7223   64.9090 H       1  ZINC000653668607    0.0800
     36 H36       -12.3488    1.9517   63.6999 H       1  ZINC000653668607    0.0800
     37 H37       -13.8376   -0.6344   64.3118 H       1  ZINC000653668607    0.0700
     38 H38       -14.4113    1.0338   64.5679 H       1  ZINC000653668607    0.0800
     39 H39       -15.4107    0.2383   62.4988 H       1  ZINC000653668607    0.0700
     40 H40       -14.1339    1.4006   62.0555 H       1  ZINC000653668607    0.0800
     41 H41       -14.1012   -2.4845   59.8595 H       1  ZINC000653668607    0.4100
     42 H42       -16.2847   -0.3281   58.5020 H       1  ZINC000653668607    0.1400
     43 H43       -16.8557   -0.0755   56.1224 H       1  ZINC000653668607    0.1300
     44 H44       -15.4056   -1.0556   54.3941 H       1  ZINC000653668607    0.1200
     45 H45       -12.3370   -4.2752   55.3230 H       1  ZINC000653668607    0.0700
     46 H46       -14.0800   -4.3154   54.9587 H       1  ZINC000653668607    0.0900
     47 H47       -12.6754   -5.3075   53.1211 H       1  ZINC000653668607    0.1000
     48 H48       -13.6272   -3.9002   52.5792 H       1  ZINC000653668607    0.0800
     49 H49       -10.6849   -3.8977   53.4016 H       1  ZINC000653668607    0.0700
     50 H50       -11.3229   -3.6852   51.7523 H       1  ZINC000653668607    0.0900
     51 H51       -11.1767   -1.4484   52.5021 H       1  ZINC000653668607    0.4200
     52 H52       -12.7914   -2.5478   57.4301 H       1  ZINC000653668607    0.1300
     53 H53       -11.7888   -1.7390   60.1097 H       1  ZINC000653668607    0.1200
@<TRIPOS>BOND
     1     1     2    1
     2     1    30    1
     3     1    31    1
     4     1    32    1
     5     2     3    1
     6     3    29   ar
     7     3     4   ar
     8     4     5   ar
     9     4    33    1
    10     5     6   ar
    11     5    34    1
    12     6    28   ar
    13     6     7    1
    14     7     8    1
    15     7    35    1
    16     7    36    1
    17     8     9    1
    18     8    37    1
    19     8    38    1
    20     9    10    1
    21     9    39    1
    22     9    40    1
    23    10    11    1
    24    10    12    1
    25    10    28    1
    26    12    13    2
    27    12    14   am
    28    14    15    1
    29    14    41    1
    30    15    27   ar
    31    15    16   ar
    32    16    17   ar
    33    16    42    1
    34    17    18   ar
    35    17    43    1
    36    18    19   ar
    37    18    44    1
    38    19    20    1
    39    19    27   ar
    40    20    25   am
    41    20    21    1
    42    21    22    1
    43    21    45    1
    44    21    46    1
    45    22    23    1
    46    22    47    1
    47    22    48    1
    48    23    24    1
    49    23    49    1
    50    23    50    1
    51    24    25   am
    52    24    51    1
    53    25    26    2
    54    27    52    1
    55    28    29   ar
    56    29    53    1
@<TRIPOS>SUBSTRUCTURE
     1 ZINC000653668607        1 TEMP              0 ****  ****    0 ROOT


##########                                Name:    ZINC000879023512
##########                DOCK_Rotatable_Bonds:                   4
##########                         Heavy_Atoms:                  20
##########                    Molecular_Weight:             346.156
##########                DOCK_Rotatable_Bonds:                   4
##########                       Formal_Charge:        -5.96046e-08
##########                     HBond_Acceptors:                   7
##########                        HBond_Donors:                   1
##########                         Heavy_Atoms:                  20
##########                          Grid_Score:          -26.689026
##########                     Grid_vdw_energy:          -24.678015
##########                      Grid_es_energy:           -2.011011
##########           Internal_energy_repulsive:            3.704792

@<TRIPOS>MOLECULE
ZINC000879023512
 33 34 1 0 0
SMALL
USER_CHARGES


@<TRIPOS>ATOM
      1 O1        -11.4783    0.3175   61.7208 O.2     1  ZINC000879023512   -0.5600
      2 C2        -10.4654   -0.2474   62.0860 C.2     1  ZINC000879023512    0.7200
      3 N3        -10.0489   -1.3611   61.4514 N.am    1  ZINC000879023512   -0.6800
      4 C4        -10.7855   -1.8705   60.3755 C.ar    1  ZINC000879023512    0.1800
      5 C5        -10.1929   -2.0002   59.1265 C.ar    1  ZINC000879023512   -0.0900
      6 C6        -10.9220   -2.5030   58.0664 C.ar    1  ZINC000879023512   -0.0700
      7 C7        -12.2414   -2.8768   58.2482 C.ar    1  ZINC000879023512   -0.0700
      8 Br8       -13.2364   -3.5648   56.7948 Br      1  ZINC000879023512    0.0200
      9 C9        -12.8344   -2.7486   59.4920 C.ar    1  ZINC000879023512    0.0000
     10 N10       -14.2464   -3.1495   59.6828 N.pl3   1  ZINC000879023512    0.0200
     11 O11       -14.7689   -3.0369   60.7773 O.2     1  ZINC000879023512   -0.1500
     12 O12       -14.8859   -3.5920   58.7454 O.2     1  ZINC000879023512   -0.1300
     13 C13       -12.1084   -2.2523   60.5566 C.ar    1  ZINC000879023512   -0.0500
     14 N14        -9.7564    0.2430   63.1219 N.am    1  ZINC000879023512   -0.6300
     15 C15        -8.5127   -0.3304   63.6569 C.3     1  ZINC000879023512    0.0900
     16 C16        -8.0789    0.5480   64.8492 C.3     1  ZINC000879023512   -0.1200
     17 C17        -9.4033    1.2358   65.2741 C.3     1  ZINC000879023512   -0.1400
     18 H18        -9.9937    0.5830   65.9171 H       1  ZINC000879023512    0.1000
     19 C19        -9.1298    2.5755   65.9605 C.3     1  ZINC000879023512    0.0700
     20 F20        -8.3482    2.3641   67.1014 F       1  ZINC000879023512   -0.2100
     21 C21       -10.0956    1.4469   63.9020 C.3     1  ZINC000879023512    0.1300
     22 H22        -9.2388   -1.8096   61.7401 H       1  ZINC000879023512    0.4200
     23 H23        -9.1631   -1.7078   58.9839 H       1  ZINC000879023512    0.1600
     24 H24       -10.4616   -2.6041   57.0947 H       1  ZINC000879023512    0.1600
     25 H25       -12.5716   -2.1528   61.5271 H       1  ZINC000879023512    0.1800
     26 H26        -8.6904   -1.3516   63.9941 H       1  ZINC000879023512    0.0700
     27 H27        -7.7395   -0.3208   62.8887 H       1  ZINC000879023512    0.0700
     28 H28        -7.6869   -0.0673   65.6591 H       1  ZINC000879023512    0.0900
     29 H29        -7.3434    1.2885   64.5353 H       1  ZINC000879023512    0.0900
     30 H30        -8.5987    3.2341   65.2732 H       1  ZINC000879023512    0.0800
     31 H31       -10.0750    3.0362   66.2477 H       1  ZINC000879023512    0.0800
     32 H32        -9.7085    2.3423   63.4156 H       1  ZINC000879023512    0.0800
     33 H33       -11.1757    1.5203   64.0295 H       1  ZINC000879023512    0.0900
@<TRIPOS>BOND
     1     1     2    2
     2     2     3   am
     3     2    14   am
     4     3     4    1
     5     3    22    1
     6     4    13   ar
     7     4     5   ar
     8     5     6   ar
     9     5    23    1
    10     6     7   ar
    11     6    24    1
    12     7     8    1
    13     7     9   ar
    14     9    10    1
    15     9    13   ar
    16    10    11    2
    17    10    12    2
    18    13    25    1
    19    14    21    1
    20    14    15    1
    21    15    16    1
    22    15    26    1
    23    15    27    1
    24    16    17    1
    25    16    28    1
    26    16    29    1
    27    17    18    1
    28    17    19    1
    29    17    21    1
    30    19    20    1
    31    19    30    1
    32    19    31    1
    33    21    32    1
    34    21    33    1
@<TRIPOS>SUBSTRUCTURE
     1 ZINC000879023512        1 TEMP              0 ****  ****    0 ROOT


##########                                Name:    ZINC000482962466
##########                DOCK_Rotatable_Bonds:                   2
##########                         Heavy_Atoms:                  25
##########                    Molecular_Weight:             404.303
##########                DOCK_Rotatable_Bonds:                   2
##########                       Formal_Charge:           0.0200002
##########                     HBond_Acceptors:                   4
##########                        HBond_Donors:                   0
##########                         Heavy_Atoms:                  25
##########                          Grid_Score:          -26.513735
##########                     Grid_vdw_energy:          -26.232498
##########                      Grid_es_energy:           -0.281236
##########           Internal_energy_repulsive:            7.787897

@<TRIPOS>MOLECULE
ZINC000482962466
 47 50 1 0 0
SMALL
USER_CHARGES


@<TRIPOS>ATOM
      1 C1        -14.5962   -4.8792   55.1089 C.3     1  ZINC000482962466   -0.1400
      2 C2        -13.5782   -3.7481   54.9504 C.3     1  ZINC000482962466    0.0700
      3 H3        -14.0852   -2.7871   55.0375 H       1  ZINC000482962466    0.0700
      4 C4        -12.9081   -3.8509   53.5756 C.3     1  ZINC000482962466    0.0800
      5 N5        -11.8089   -2.8744   53.5197 N.am    1  ZINC000482962466   -0.6100
      6 C6        -11.6968   -2.0138   52.4885 C.2     1  ZINC000482962466    0.5600
      7 O7        -12.5112   -2.0371   51.5862 O.2     1  ZINC000482962466   -0.5200
      8 C8        -10.5842   -1.0422   52.4546 C.ar    1  ZINC000482962466   -0.1100
      9 C9         -9.2591   -1.5021   52.3531 C.ar    1  ZINC000482962466   -0.0700
     10 C10        -8.2201   -0.6292   52.3201 C.ar    1  ZINC000482962466   -0.1000
     11 C11        -8.4613    0.7552   52.3876 C.ar    1  ZINC000482962466   -0.0400
     12 C12        -7.4023    1.6773   52.3550 C.ar    1  ZINC000482962466   -0.0700
     13 C13        -7.6669    3.0120   52.4217 C.ar    1  ZINC000482962466   -0.0800
     14 Br14       -6.2368    4.2483   52.3769 Br      1  ZINC000482962466   -0.0400
     15 C15        -8.9768    3.4804   52.5222 C.ar    1  ZINC000482962466   -0.1000
     16 C16       -10.0278    2.6170   52.5568 C.ar    1  ZINC000482962466   -0.0900
     17 C17        -9.7934    1.2315   52.4896 C.ar    1  ZINC000482962466   -0.0500
     18 C18       -10.8546    0.3150   52.5171 C.ar    1  ZINC000482962466   -0.0700
     19 C19       -10.8352   -2.8655   54.6232 C.3     1  ZINC000482962466    0.0700
     20 C20       -11.6054   -2.8135   55.9464 C.3     1  ZINC000482962466    0.0800
     21 C21       -10.6305   -2.9976   57.1120 C.3     1  ZINC000482962466   -0.1100
     22 C22       -11.3981   -2.8638   58.4311 C.3     1  ZINC000482962466   -0.1500
     23 C23       -12.1011   -1.5043   58.4674 C.3     1  ZINC000482962466    0.0600
     24 O24       -12.9705   -1.3878   57.3394 O.3     1  ZINC000482962466   -0.3700
     25 C25       -12.3019   -1.4575   56.0782 C.3     1  ZINC000482962466    0.0400
     26 O26       -12.5816   -3.8563   55.9700 O.3     1  ZINC000482962466   -0.3500
     27 H27       -15.0708   -4.8065   56.0873 H       1  ZINC000482962466    0.0700
     28 H28       -15.3546   -4.7971   54.3302 H       1  ZINC000482962466    0.0800
     29 H29       -14.0885   -5.8398   55.0217 H       1  ZINC000482962466    0.0700
     30 H30       -12.5129   -4.8569   53.4342 H       1  ZINC000482962466    0.0800
     31 H31       -13.6361   -3.6291   52.7950 H       1  ZINC000482962466    0.1000
     32 H32        -9.0657   -2.5634   52.3013 H       1  ZINC000482962466    0.1400
     33 H33        -7.2078   -0.9977   52.2424 H       1  ZINC000482962466    0.1400
     34 H34        -6.3827    1.3298   52.2779 H       1  ZINC000482962466    0.1400
     35 H35        -9.1594    4.5437   52.5735 H       1  ZINC000482962466    0.1400
     36 H36       -11.0369    2.9936   52.6355 H       1  ZINC000482962466    0.1400
     37 H37       -11.8739    0.6644   52.5908 H       1  ZINC000482962466    0.1400
     38 H38       -10.2299   -3.7713   54.5861 H       1  ZINC000482962466    0.0900
     39 H39       -10.1918   -1.9897   54.5382 H       1  ZINC000482962466    0.1000
     40 H40       -10.1750   -3.9862   57.0538 H       1  ZINC000482962466    0.0800
     41 H41        -9.8546   -2.2337   57.0626 H       1  ZINC000482962466    0.0800
     42 H42       -12.1396   -3.6594   58.5033 H       1  ZINC000482962466    0.0800
     43 H43       -10.7019   -2.9364   59.2667 H       1  ZINC000482962466    0.0800
     44 H44       -12.6833   -1.4208   59.3851 H       1  ZINC000482962466    0.1000
     45 H45       -11.3563   -0.7092   58.4359 H       1  ZINC000482962466    0.0500
     46 H46       -11.5609   -0.6606   56.0149 H       1  ZINC000482962466    0.0600
     47 H47       -13.0291   -1.3427   55.2744 H       1  ZINC000482962466    0.1000
@<TRIPOS>BOND
     1     1     2    1
     2     1    27    1
     3     1    28    1
     4     1    29    1
     5     2     3    1
     6     2    26    1
     7     2     4    1
     8     4     5    1
     9     4    30    1
    10     4    31    1
    11     5     6   am
    12     5    19    1
    13     6     7    2
    14     6     8    1
    15     8    18   ar
    16     8     9   ar
    17     9    10   ar
    18     9    32    1
    19    10    11   ar
    20    10    33    1
    21    11    17   ar
    22    11    12   ar
    23    12    13   ar
    24    12    34    1
    25    13    14    1
    26    13    15   ar
    27    15    16   ar
    28    15    35    1
    29    16    17   ar
    30    16    36    1
    31    17    18   ar
    32    18    37    1
    33    19    20    1
    34    19    38    1
    35    19    39    1
    36    20    25    1
    37    20    21    1
    38    20    26    1
    39    21    22    1
    40    21    40    1
    41    21    41    1
    42    22    23    1
    43    22    42    1
    44    22    43    1
    45    23    24    1
    46    23    44    1
    47    23    45    1
    48    24    25    1
    49    25    46    1
    50    25    47    1
@<TRIPOS>SUBSTRUCTURE
     1 ZINC000482962466        1 TEMP              0 ****  ****    0 ROOT


##########                                Name:    ZINC000883773972
##########                DOCK_Rotatable_Bonds:                   4
##########                         Heavy_Atoms:                  23
##########                    Molecular_Weight:             343.447
##########                DOCK_Rotatable_Bonds:                   4
##########                       Formal_Charge:                0.01
##########                     HBond_Acceptors:                   8
##########                        HBond_Donors:                   1
##########                         Heavy_Atoms:                  23
##########                          Grid_Score:          -26.470238
##########                     Grid_vdw_energy:          -24.693140
##########                      Grid_es_energy:           -1.777098
##########           Internal_energy_repulsive:            5.057683

@<TRIPOS>MOLECULE
ZINC000883773972
 48 50 1 0 0
SMALL
USER_CHARGES


@<TRIPOS>ATOM
      1 C1         -8.2372    4.0872   67.4062 C.3     1  ZINC000883773972   -0.1700
      2 C2         -7.4903    2.8768   66.9080 C.2     1  ZINC000883773972    0.5300
      3 O3         -6.4255    2.5747   67.4038 O.2     1  ZINC000883773972   -0.5400
      4 N4         -8.0056    2.1300   65.9114 N.am    1  ZINC000883773972   -0.6200
      5 C5         -7.4084    0.9226   65.3174 C.3     1  ZINC000883773972    0.1100
      6 C6         -8.5809    0.0320   64.8740 C.3     1  ZINC000883773972   -0.1100
      7 H7         -8.7451   -0.7959   65.5637 H       1  ZINC000883773972    0.1000
      8 C8         -8.3328   -0.4596   63.4381 C.3     1  ZINC000883773972    0.1300
      9 N9         -9.5779   -0.2109   62.6933 N.am    1  ZINC000883773972   -0.6400
     10 C10       -10.0611   -0.9380   61.6663 C.2     1  ZINC000883773972    0.7300
     11 O11        -9.4488   -1.9102   61.2686 O.2     1  ZINC000883773972   -0.5800
     12 N12       -11.2230   -0.5872   61.0803 N.am    1  ZINC000883773972   -0.7400
     13 C13       -11.7473   -1.3764   59.9629 C.3     1  ZINC000883773972    0.1800
     14 H14       -11.6117   -2.4372   60.1742 H       1  ZINC000883773972    0.1100
     15 C15       -13.2341   -1.0809   59.7877 C.3     1  ZINC000883773972   -0.1500
     16 C16       -13.8654   -2.0625   58.8047 C.3     1  ZINC000883773972   -0.1000
     17 C17       -13.3593   -1.7822   57.3879 C.3     1  ZINC000883773972   -0.5600
     18 H18       -13.5664   -0.7449   57.1251 H       1  ZINC000883773972    0.1400
     19 C19       -14.0653   -2.7118   56.3988 C.3     1  ZINC000883773972   -0.1400
     20 S20       -11.5677   -2.0776   57.3307 S.o2    1  ZINC000883773972    2.4200
     21 O21       -11.3189   -3.4328   57.6785 O.2     1  ZINC000883773972   -0.9200
     22 O22       -11.0622   -1.5707   56.1032 O.2     1  ZINC000883773972   -0.9300
     23 C23       -10.9896   -1.0123   58.6842 C.3     1  ZINC000883773972   -0.6300
     24 C24       -10.1924    0.9869   63.2891 C.3     1  ZINC000883773972    0.1100
     25 C25        -9.8062    0.9760   64.8002 C.3     1  ZINC000883773972   -0.1100
     26 H26       -10.6349    0.6495   65.4285 H       1  ZINC000883773972    0.1000
     27 C27        -9.2788    2.3585   65.2086 C.3     1  ZINC000883773972    0.1100
     28 H28        -7.6695    4.5599   68.2076 H       1  ZINC000883773972    0.0900
     29 H29        -8.3690    4.7951   66.5879 H       1  ZINC000883773972    0.0900
     30 H30        -9.2132    3.7820   67.7834 H       1  ZINC000883773972    0.0900
     31 H31        -6.7970    1.1925   64.4563 H       1  ZINC000883773972    0.0800
     32 H32        -6.8022    0.4016   66.0586 H       1  ZINC000883773972    0.0900
     33 H33        -7.5105    0.0974   62.9889 H       1  ZINC000883773972    0.0700
     34 H34        -8.1053   -1.5256   63.4416 H       1  ZINC000883773972    0.0900
     35 H35       -11.7122    0.1877   61.3984 H       1  ZINC000883773972    0.4000
     36 H36       -13.7336   -1.1675   60.7526 H       1  ZINC000883773972    0.0900
     37 H37       -13.3565   -0.0657   59.4104 H       1  ZINC000883773972    0.0800
     38 H38       -13.5996   -3.0806   59.0890 H       1  ZINC000883773972    0.0900
     39 H39       -14.9496   -1.9527   58.8299 H       1  ZINC000883773972    0.0900
     40 H40       -15.1405   -2.5378   56.4407 H       1  ZINC000883773972    0.0800
     41 H41       -13.7038   -2.5111   55.3902 H       1  ZINC000883773972    0.0700
     42 H42       -13.8544   -3.7486   56.6607 H       1  ZINC000883773972    0.0800
     43 H43       -11.1761    0.0316   58.4318 H       1  ZINC000883773972    0.1400
     44 H44        -9.9217   -1.1663   58.8390 H       1  ZINC000883773972    0.1400
     45 H45        -9.8084    1.8846   62.8048 H       1  ZINC000883773972    0.0800
     46 H46       -11.2767    0.9410   63.1875 H       1  ZINC000883773972    0.0800
     47 H47       -10.0002    2.8580   65.8552 H       1  ZINC000883773972    0.0900
     48 H48        -9.0886    2.9633   64.3220 H       1  ZINC000883773972    0.0700
@<TRIPOS>BOND
     1     1     2    1
     2     1    28    1
     3     1    29    1
     4     1    30    1
     5     2     3    2
     6     2     4   am
     7     4    27    1
     8     4     5    1
     9     5     6    1
    10     5    31    1
    11     5    32    1
    12     6     7    1
    13     6    25    1
    14     6     8    1
    15     8     9    1
    16     8    33    1
    17     8    34    1
    18     9    10   am
    19     9    24    1
    20    10    11    2
    21    10    12   am
    22    12    13    1
    23    12    35    1
    24    13    14    1
    25    13    23    1
    26    13    15    1
    27    15    16    1
    28    15    36    1
    29    15    37    1
    30    16    17    1
    31    16    38    1
    32    16    39    1
    33    17    18    1
    34    17    19    1
    35    17    20    1
    36    19    40    1
    37    19    41    1
    38    19    42    1
    39    20    21    2
    40    20    22    2
    41    20    23    1
    42    23    43    1
    43    23    44    1
    44    24    25    1
    45    24    45    1
    46    24    46    1
    47    25    26    1
    48    25    27    1
    49    27    47    1
    50    27    48    1
@<TRIPOS>SUBSTRUCTURE
     1 ZINC000883773972        1 TEMP              0 ****  ****    0 ROOT


##########                                Name:    ZINC000931749147
##########                DOCK_Rotatable_Bonds:                   5
##########                         Heavy_Atoms:                  25
##########                    Molecular_Weight:             354.397
##########                DOCK_Rotatable_Bonds:                   5
##########                       Formal_Charge:        -4.76837e-07
##########                     HBond_Acceptors:                   7
##########                        HBond_Donors:                   1
##########                         Heavy_Atoms:                  25
##########                          Grid_Score:          -26.438845
##########                     Grid_vdw_energy:          -26.511955
##########                      Grid_es_energy:            0.073111
##########           Internal_energy_repulsive:           81.929443

@<TRIPOS>MOLECULE
ZINC000931749147
 49 51 1 0 0
SMALL
USER_CHARGES


@<TRIPOS>ATOM
      1 C1         -8.0081   -0.6476   52.0072 C.3     1  ZINC000931749147   -0.1100
      2 C2         -8.9017    0.5351   52.2790 C.ar    1  ZINC000931749147   -0.1300
      3 C3        -10.1370    0.3480   52.8837 C.ar    1  ZINC000931749147    0.1800
      4 N4        -10.5541   -0.9400   53.2422 N.am    1  ZINC000931749147   -0.6800
      5 C5        -10.6717   -1.2726   54.5430 C.2     1  ZINC000931749147    0.7100
      6 O6        -10.4158   -0.4544   55.4053 O.2     1  ZINC000931749147   -0.5500
      7 N7        -11.0731   -2.5121   54.8880 N.am    1  ZINC000931749147   -0.6200
      8 C8        -11.3884   -3.5191   53.8624 C.3     1  ZINC000931749147    0.0700
      9 C9        -12.7630   -4.1187   54.1800 C.3     1  ZINC000931749147    0.0500
     10 O10       -12.7784   -4.5681   55.5370 O.3     1  ZINC000931749147   -0.3700
     11 C11       -12.5917   -3.5282   56.5002 C.3     1  ZINC000931749147    0.0500
     12 C12       -11.2029   -2.9003   56.3015 C.3     1  ZINC000931749147    0.1300
     13 H13       -10.4317   -3.6254   56.5611 H       1  ZINC000931749147    0.0900
     14 C14       -11.0656   -1.6618   57.1893 C.3     1  ZINC000931749147   -0.1100
     15 C15       -11.4174   -2.0275   58.6327 C.3     1  ZINC000931749147   -0.1000
     16 C16       -10.3559   -1.4580   59.5789 C.3     1  ZINC000931749147   -0.1500
     17 C17       -10.7573   -1.7607   61.0249 C.3     1  ZINC000931749147    0.0600
     18 O18       -12.0476   -1.2047   61.2861 O.3     1  ZINC000931749147   -0.3800
     19 C19       -13.0888   -1.7346   60.4632 C.3     1  ZINC000931749147    0.0600
     20 C20       -12.7811   -1.4308   58.9945 C.3     1  ZINC000931749147   -0.1500
     21 C21       -10.9586    1.4392   53.1332 C.ar    1  ZINC000931749147   -0.1200
     22 C22       -10.5464    2.7093   52.7797 C.ar    1  ZINC000931749147   -0.1100
     23 C23        -9.3145    2.8959   52.1767 C.ar    1  ZINC000931749147    0.0500
     24 F24        -8.9133    4.1391   51.8319 F       1  ZINC000931749147   -0.1300
     25 C25        -8.4892    1.8089   51.9314 C.ar    1  ZINC000931749147    0.0900
     26 F26        -7.2872    1.9926   51.3428 F       1  ZINC000931749147   -0.1200
     27 H27        -7.3614   -0.8197   52.8674 H       1  ZINC000931749147    0.0800
     28 H28        -8.6200   -1.5320   51.8298 H       1  ZINC000931749147    0.0700
     29 H29        -7.3968   -0.4464   51.1274 H       1  ZINC000931749147    0.0800
     30 H30       -10.7582   -1.5928   52.5544 H       1  ZINC000931749147    0.4100
     31 H31       -11.4116   -3.0477   52.8800 H       1  ZINC000931749147    0.0800
     32 H32       -10.6333   -4.3051   53.8753 H       1  ZINC000931749147    0.0900
     33 H33       -13.5326   -3.3596   54.0392 H       1  ZINC000931749147    0.0600
     34 H34       -12.9553   -4.9608   53.5153 H       1  ZINC000931749147    0.1100
     35 H35       -13.3607   -2.7672   56.3678 H       1  ZINC000931749147    0.0600
     36 H36       -12.6608   -3.9457   57.5047 H       1  ZINC000931749147    0.1100
     37 H37       -10.0396   -1.2963   57.1468 H       1  ZINC000931749147    0.1100
     38 H38       -11.7431   -0.8845   56.8359 H       1  ZINC000931749147    0.0700
     39 H39       -11.4551   -3.1120   58.7353 H       1  ZINC000931749147    0.0700
     40 H40        -9.3919   -1.9189   59.3644 H       1  ZINC000931749147    0.0700
     41 H41       -10.2842   -0.3793   59.4389 H       1  ZINC000931749147    0.0700
     42 H42       -10.7895   -2.8399   61.1750 H       1  ZINC000931749147    0.0500
     43 H43       -10.0275   -1.3206   61.7045 H       1  ZINC000931749147    0.0900
     44 H44       -13.1513   -2.8134   60.6059 H       1  ZINC000931749147    0.0500
     45 H45       -14.0385   -1.2757   60.7380 H       1  ZINC000931749147    0.0900
     46 H46       -12.7583   -0.3517   58.8428 H       1  ZINC000931749147    0.0700
     47 H47       -13.5513   -1.8724   58.3622 H       1  ZINC000931749147    0.0700
     48 H48       -11.9202    1.2949   53.6033 H       1  ZINC000931749147    0.1800
     49 H49       -11.1860    3.5577   52.9738 H       1  ZINC000931749147    0.1500
@<TRIPOS>BOND
     1     1     2    1
     2     1    27    1
     3     1    28    1
     4     1    29    1
     5     2    25   ar
     6     2     3   ar
     7     3     4    1
     8     3    21   ar
     9     4     5   am
    10     4    30    1
    11     5     6    2
    12     5     7   am
    13     7    12    1
    14     7     8    1
    15     8     9    1
    16     8    31    1
    17     8    32    1
    18     9    10    1
    19     9    33    1
    20     9    34    1
    21    10    11    1
    22    11    12    1
    23    11    35    1
    24    11    36    1
    25    12    13    1
    26    12    14    1
    27    14    15    1
    28    14    37    1
    29    14    38    1
    30    15    20    1
    31    15    16    1
    32    15    39    1
    33    16    17    1
    34    16    40    1
    35    16    41    1
    36    17    18    1
    37    17    42    1
    38    17    43    1
    39    18    19    1
    40    19    20    1
    41    19    44    1
    42    19    45    1
    43    20    46    1
    44    20    47    1
    45    21    22   ar
    46    21    48    1
    47    22    23   ar
    48    22    49    1
    49    23    24    1
    50    23    25   ar
    51    25    26    1
@<TRIPOS>SUBSTRUCTURE
     1 ZINC000931749147        1 TEMP              0 ****  ****    0 ROOT


##########                                Name:    ZINC000375477402
##########                DOCK_Rotatable_Bonds:                   5
##########                         Heavy_Atoms:                  26
##########                    Molecular_Weight:             378.342
##########                DOCK_Rotatable_Bonds:                   5
##########                       Formal_Charge:         -1.2666e-07
##########                     HBond_Acceptors:                   9
##########                        HBond_Donors:                   1
##########                         Heavy_Atoms:                  26
##########                          Grid_Score:          -26.242210
##########                     Grid_vdw_energy:          -26.655952
##########                      Grid_es_energy:            0.413743
##########           Internal_energy_repulsive:            7.826428

@<TRIPOS>MOLECULE
ZINC000375477402
 45 47 1 0 0
SMALL
USER_CHARGES


@<TRIPOS>ATOM
      1 O1         -8.9901    2.7673   56.4375 O.2     1  ZINC000375477402   -0.5600
      2 C2         -9.3850    1.6174   56.4529 C.2     1  ZINC000375477402    0.7200
      3 N3         -9.6108    0.9670   55.2943 N.am    1  ZINC000375477402   -0.7300
      4 C4         -9.3861    1.6473   54.0164 C.3     1  ZINC000375477402    0.1800
      5 H5         -8.8150    2.5601   54.1862 H       1  ZINC000375477402    0.1500
      6 C6         -8.6177    0.7386   53.0918 C.ar    1  ZINC000375477402   -0.1300
      7 C7         -9.0341   -0.5655   52.9010 C.ar    1  ZINC000375477402   -0.0800
      8 C8         -8.3303   -1.4004   52.0532 C.ar    1  ZINC000375477402   -0.0900
      9 C9         -7.2087   -0.9328   51.3946 C.ar    1  ZINC000375477402   -0.1100
     10 C10        -6.7891    0.3725   51.5835 C.ar    1  ZINC000375477402    0.0800
     11 F11        -5.6929    0.8304   50.9401 F       1  ZINC000375477402   -0.1200
     12 C12        -7.4983    1.2116   52.4294 C.ar    1  ZINC000375477402    0.1000
     13 F13        -7.0906    2.4861   52.6154 F       1  ZINC000375477402   -0.1100
     14 C14       -10.7333    1.9992   53.3823 C.3     1  ZINC000375477402    0.4400
     15 F15       -11.5348    0.8540   53.3243 F       1  ZINC000375477402   -0.1600
     16 F16       -11.3711    2.9762   54.1541 F       1  ZINC000375477402   -0.1700
     17 F17       -10.5258    2.4891   52.0883 F       1  ZINC000375477402   -0.1800
     18 N18        -9.5917    0.9916   57.6285 N.am    1  ZINC000375477402   -0.6300
     19 C19        -9.3848    1.5811   58.9645 C.3     1  ZINC000375477402    0.1000
     20 C20       -10.3023    0.7621   59.9082 C.3     1  ZINC000375477402   -0.1200
     21 C21       -10.1839   -0.6539   59.3015 C.3     1  ZINC000375477402   -0.1100
     22 C22       -10.0677   -0.3916   57.7923 C.3     1  ZINC000375477402    0.1400
     23 C23        -8.9367   -1.3505   59.8311 C.3     1  ZINC000375477402   -0.1100
     24 C24        -8.8775   -2.7743   59.2653 C.3     1  ZINC000375477402   -0.1600
     25 C25       -10.1748   -3.5068   59.6181 C.3     1  ZINC000375477402    0.0600
     26 O26       -11.2889   -2.7881   59.0845 O.3     1  ZINC000375477402   -0.3800
     27 C27       -11.4346   -1.4658   59.6100 C.3     1  ZINC000375477402    0.0800
     28 H28        -9.9220    0.0483   55.3066 H       1  ZINC000375477402    0.4000
     29 H29        -9.9101   -0.9326   53.4150 H       1  ZINC000375477402    0.1400
     30 H30        -8.6570   -2.4191   51.9055 H       1  ZINC000375477402    0.1500
     31 H31        -6.6595   -1.5861   50.7328 H       1  ZINC000375477402    0.1500
     32 H32        -8.3424    1.4790   59.2666 H       1  ZINC000375477402    0.0700
     33 H33        -9.6797    2.6304   58.9657 H       1  ZINC000375477402    0.0700
     34 H34        -9.9275    0.7814   60.9315 H       1  ZINC000375477402    0.0900
     35 H35       -11.3302    1.1218   59.8632 H       1  ZINC000375477402    0.0800
     36 H36       -11.0416   -0.5138   57.3182 H       1  ZINC000375477402    0.0800
     37 H37        -9.3479   -1.0804   57.3502 H       1  ZINC000375477402    0.0700
     38 H38        -8.0505   -0.7976   59.5197 H       1  ZINC000375477402    0.0700
     39 H39        -8.9773   -1.3925   60.9195 H       1  ZINC000375477402    0.0700
     40 H40        -8.7660   -2.7317   58.1819 H       1  ZINC000375477402    0.0700
     41 H41        -8.0299   -3.3042   59.6998 H       1  ZINC000375477402    0.0800
     42 H42       -10.1525   -4.5103   59.1931 H       1  ZINC000375477402    0.1000
     43 H43       -10.2711   -3.5735   60.7018 H       1  ZINC000375477402    0.0500
     44 H44       -11.5765   -1.5177   60.6894 H       1  ZINC000375477402    0.0600
     45 H45       -12.3004   -0.9867   59.1529 H       1  ZINC000375477402    0.1000
@<TRIPOS>BOND
     1     1     2    2
     2     2     3   am
     3     2    18   am
     4     3     4    1
     5     3    28    1
     6     4     5    1
     7     4     6    1
     8     4    14    1
     9     6    12   ar
    10     6     7   ar
    11     7     8   ar
    12     7    29    1
    13     8     9   ar
    14     8    30    1
    15     9    10   ar
    16     9    31    1
    17    10    11    1
    18    10    12   ar
    19    12    13    1
    20    14    15    1
    21    14    16    1
    22    14    17    1
    23    18    22    1
    24    18    19    1
    25    19    20    1
    26    19    32    1
    27    19    33    1
    28    20    21    1
    29    20    34    1
    30    20    35    1
    31    21    27    1
    32    21    22    1
    33    21    23    1
    34    22    36    1
    35    22    37    1
    36    23    24    1
    37    23    38    1
    38    23    39    1
    39    24    25    1
    40    24    40    1
    41    24    41    1
    42    25    26    1
    43    25    42    1
    44    25    43    1
    45    26    27    1
    46    27    44    1
    47    27    45    1
@<TRIPOS>SUBSTRUCTURE
     1 ZINC000375477402        1 TEMP              0 ****  ****    0 ROOT


##########                                Name:    ZINC001211202056
##########                DOCK_Rotatable_Bonds:                   4
##########                         Heavy_Atoms:                  23
##########                    Molecular_Weight:             386.181
##########                DOCK_Rotatable_Bonds:                   4
##########                       Formal_Charge:           0.0199999
##########                     HBond_Acceptors:                  11
##########                        HBond_Donors:                   3
##########                         Heavy_Atoms:                  23
##########                          Grid_Score:          -26.205132
##########                     Grid_vdw_energy:          -28.429108
##########                      Grid_es_energy:            2.223977
##########           Internal_energy_repulsive:            5.997646

@<TRIPOS>MOLECULE
ZINC001211202056
 31 32 1 0 0
SMALL
USER_CHARGES


@<TRIPOS>ATOM
      1 N1        -17.0471   -1.1095   58.5950 N.pl3   1  ZINC001211202056   -0.8500
      2 C2        -16.1816   -1.9659   57.9090 C.ar    1  ZINC001211202056    0.2900
      3 C3        -15.9188   -1.7566   56.5619 C.ar    1  ZINC001211202056   -0.2000
      4 C4        -15.0628   -2.6051   55.8866 C.ar    1  ZINC001211202056    0.0400
      5 C5        -14.4681   -3.6621   56.5501 C.ar    1  ZINC001211202056   -0.7300
      6 S6        -13.3771   -4.7414   55.6843 S.o2    1  ZINC001211202056    2.6900
      7 O7        -13.1845   -5.8734   56.5215 O.2     1  ZINC001211202056   -0.9400
      8 O8        -13.8734   -4.8327   54.3560 O.2     1  ZINC001211202056   -0.9300
      9 N9        -11.9105   -3.9789   55.5842 N.am    1  ZINC001211202056   -1.0500
     10 C10       -11.2288   -3.6191   56.7502 C.ar    1  ZINC001211202056    0.1600
     11 C11       -10.6034   -4.5875   57.5302 C.ar    1  ZINC001211202056   -0.1200
     12 C12        -9.9395   -4.1817   58.6771 C.ar    1  ZINC001211202056   -0.0800
     13 C13        -9.9196   -2.8401   59.0072 C.ar    1  ZINC001211202056    0.0400
     14 C14        -9.1995   -2.3924   60.2530 C.3     1  ZINC001211202056    0.5300
     15 F15        -8.2341   -3.3433   60.6008 F       1  ZINC001211202056   -0.1700
     16 F16        -8.5776   -1.1619   60.0155 F       1  ZINC001211202056   -0.1600
     17 F17       -10.1182   -2.2562   61.2993 F       1  ZINC001211202056   -0.1700
     18 N18       -10.5217   -1.9455   58.2473 N.ar    1  ZINC001211202056   -0.4100
     19 C19       -11.1604   -2.2874   57.1454 C.ar    1  ZINC001211202056    0.1600
     20 Cl20      -11.9335   -1.0649   56.1854 Cl      1  ZINC001211202056    0.0000
     21 C21       -14.7272   -3.8743   57.8922 C.ar    1  ZINC001211202056    0.0400
     22 C22       -15.5774   -3.0260   58.5753 C.ar    1  ZINC001211202056   -0.1400
     23 Cl23      -15.9024   -3.2925   60.2597 Cl      1  ZINC001211202056   -0.0500
     24 H24       -17.2269   -1.2543   59.5372 H       1  ZINC001211202056    0.4100
     25 H25       -17.4649   -0.3679   58.1300 H       1  ZINC001211202056    0.4100
     26 H26       -16.3833   -0.9317   56.0424 H       1  ZINC001211202056    0.1400
     27 H27       -14.8581   -2.4426   54.8386 H       1  ZINC001211202056    0.1500
     28 H28       -11.5246   -3.7820   54.7164 H       1  ZINC001211202056    0.4400
     29 H29       -10.6349   -5.6297   57.2486 H       1  ZINC001211202056    0.2000
     30 H30        -9.4434   -4.9061   59.3060 H       1  ZINC001211202056    0.1700
     31 H31       -14.2610   -4.7009   58.4076 H       1  ZINC001211202056    0.1500
@<TRIPOS>BOND
     1     1     2    1
     2     1    24    1
     3     1    25    1
     4     2    22   ar
     5     2     3   ar
     6     3     4   ar
     7     3    26    1
     8     4     5   ar
     9     4    27    1
    10     5     6    1
    11     5    21   ar
    12     6     7    2
    13     6     8    2
    14     6     9   am
    15     9    10    1
    16     9    28    1
    17    10    19   ar
    18    10    11   ar
    19    11    12   ar
    20    11    29    1
    21    12    13   ar
    22    12    30    1
    23    13    14    1
    24    13    18   ar
    25    14    15    1
    26    14    16    1
    27    14    17    1
    28    18    19   ar
    29    19    20    1
    30    21    22   ar
    31    21    31    1
    32    22    23    1
@<TRIPOS>SUBSTRUCTURE
     1 ZINC001211202056        1 TEMP              0 ****  ****    0 ROOT


##########                                Name:    ZINC000055987960
##########                DOCK_Rotatable_Bonds:                   6
##########                         Heavy_Atoms:                  28
##########                    Molecular_Weight:             404.868
##########                DOCK_Rotatable_Bonds:                   6
##########                       Formal_Charge:          0.00999941
##########                     HBond_Acceptors:                   7
##########                        HBond_Donors:                   1
##########                         Heavy_Atoms:                  28
##########                          Grid_Score:          -26.187542
##########                     Grid_vdw_energy:          -25.795092
##########                      Grid_es_energy:           -0.392450
##########           Internal_energy_repulsive:           25.411587

@<TRIPOS>MOLECULE
ZINC000055987960
 50 52 1 0 0
SMALL
USER_CHARGES


@<TRIPOS>ATOM
      1 C1         -5.3597    1.2236   51.6951 C.3     1  ZINC000055987960   -0.1800
      2 C2         -6.1139    2.2336   50.8278 C.3     1  ZINC000055987960    0.0700
      3 H3         -6.8565    1.7120   50.2241 H       1  ZINC000055987960    0.1200
      4 C4         -6.8137    3.2589   51.7272 C.3     1  ZINC000055987960    0.0800
      5 N5         -5.7837    4.0737   52.3908 N.am    1  ZINC000055987960   -0.6100
      6 C6         -5.8002    4.2605   53.7255 C.2     1  ZINC000055987960    0.5700
      7 O7         -4.9400    4.9371   54.2552 O.2     1  ZINC000055987960   -0.5300
      8 C8         -6.8622    3.6436   54.5440 C.ar    1  ZINC000055987960   -0.1500
      9 C9         -8.2045    3.9291   54.2801 C.ar    1  ZINC000055987960   -0.0700
     10 C10        -9.1927    3.3517   55.0453 C.ar    1  ZINC000055987960   -0.1500
     11 C11        -8.8562    2.4848   56.0802 C.ar    1  ZINC000055987960    0.1700
     12 N12        -9.8596    1.9013   56.8529 N.am    1  ZINC000055987960   -0.6700
     13 C13        -9.7885    0.5944   57.1744 C.2     1  ZINC000055987960    0.5200
     14 O14        -8.8519   -0.0742   56.7916 O.2     1  ZINC000055987960   -0.5000
     15 C15       -10.8730   -0.0362   58.0095 C.3     1  ZINC000055987960   -0.1100
     16 C16       -10.4417   -1.4164   58.4338 C.ar    1  ZINC000055987960   -0.1000
     17 C17        -9.3475   -1.5746   59.2666 C.ar    1  ZINC000055987960    0.1300
     18 F18        -8.6654   -0.4917   59.6994 F       1  ZINC000055987960   -0.1300
     19 C19        -8.9525   -2.8435   59.6561 C.ar    1  ZINC000055987960   -0.1500
     20 C20        -9.6507   -3.9508   59.2136 C.ar    1  ZINC000055987960   -0.0700
     21 C21       -10.7437   -3.7929   58.3819 C.ar    1  ZINC000055987960   -0.1200
     22 C22       -11.1428   -2.5258   57.9959 C.ar    1  ZINC000055987960    0.0000
     23 Cl23      -12.5157   -2.3285   56.9520 Cl      1  ZINC000055987960   -0.0500
     24 C24        -7.5208    2.1984   56.3455 C.ar    1  ZINC000055987960   -0.1200
     25 C25        -6.5279    2.7683   55.5809 C.ar    1  ZINC000055987960   -0.0500
     26 C26        -4.7348    4.6782   51.5543 C.3     1  ZINC000055987960    0.0600
     27 C27        -4.1362    3.5837   50.6634 C.3     1  ZINC000055987960    0.0700
     28 H28        -3.5918    2.8691   51.2807 H       1  ZINC000055987960    0.0700
     29 C29        -3.1804    4.2158   49.6496 C.3     1  ZINC000055987960   -0.1500
     30 O30        -5.1911    2.9099   49.9707 O.3     1  ZINC000055987960   -0.3700
     31 H31        -4.6173    1.7458   52.2986 H       1  ZINC000055987960    0.0600
     32 H32        -6.0636    0.7096   52.3496 H       1  ZINC000055987960    0.0700
     33 H33        -4.8609    0.4960   51.0550 H       1  ZINC000055987960    0.0700
     34 H34        -7.4557    3.8997   51.1227 H       1  ZINC000055987960    0.0800
     35 H35        -7.4121    2.7416   52.4770 H       1  ZINC000055987960    0.1000
     36 H36        -8.4664    4.6022   53.4772 H       1  ZINC000055987960    0.1400
     37 H37       -10.2303    3.5722   54.8422 H       1  ZINC000055987960    0.1300
     38 H38       -10.6088    2.4360   57.1590 H       1  ZINC000055987960    0.4200
     39 H39       -11.0532    0.5759   58.8932 H       1  ZINC000055987960    0.1200
     40 H40       -11.7890   -0.1061   57.4229 H       1  ZINC000055987960    0.1200
     41 H41        -8.0986   -2.9676   60.3056 H       1  ZINC000055987960    0.1500
     42 H42        -9.3421   -4.9402   59.5173 H       1  ZINC000055987960    0.1500
     43 H43       -11.2884   -4.6590   58.0362 H       1  ZINC000055987960    0.1400
     44 H44        -7.2629    1.5254   57.1498 H       1  ZINC000055987960    0.1500
     45 H45        -5.4914    2.5457   55.7872 H       1  ZINC000055987960    0.1300
     46 H46        -5.1675    5.4620   50.9324 H       1  ZINC000055987960    0.0800
     47 H47        -3.9565    5.1008   52.1896 H       1  ZINC000055987960    0.1100
     48 H48        -2.3791    4.7318   50.1785 H       1  ZINC000055987960    0.0700
     49 H49        -2.7552    3.4370   49.0165 H       1  ZINC000055987960    0.0700
     50 H50        -3.7259    4.9289   49.0315 H       1  ZINC000055987960    0.0700
@<TRIPOS>BOND
     1     1     2    1
     2     1    31    1
     3     1    32    1
     4     1    33    1
     5     2     3    1
     6     2    30    1
     7     2     4    1
     8     4     5    1
     9     4    34    1
    10     4    35    1
    11     5     6   am
    12     5    26    1
    13     6     7    2
    14     6     8    1
    15     8    25   ar
    16     8     9   ar
    17     9    10   ar
    18     9    36    1
    19    10    11   ar
    20    10    37    1
    21    11    12    1
    22    11    24   ar
    23    12    13   am
    24    12    38    1
    25    13    14    2
    26    13    15    1
    27    15    16    1
    28    15    39    1
    29    15    40    1
    30    16    22   ar
    31    16    17   ar
    32    17    18    1
    33    17    19   ar
    34    19    20   ar
    35    19    41    1
    36    20    21   ar
    37    20    42    1
    38    21    22   ar
    39    21    43    1
    40    22    23    1
    41    24    25   ar
    42    24    44    1
    43    25    45    1
    44    26    27    1
    45    26    46    1
    46    26    47    1
    47    27    28    1
    48    27    29    1
    49    27    30    1
    50    29    48    1
    51    29    49    1
    52    29    50    1
@<TRIPOS>SUBSTRUCTURE
     1 ZINC000055987960        1 TEMP              0 ****  ****    0 ROOT


##########                                Name:    ZINC000820901229
##########                DOCK_Rotatable_Bonds:                   3
##########                         Heavy_Atoms:                  18
##########                    Molecular_Weight:             331.233
##########                DOCK_Rotatable_Bonds:                   3
##########                       Formal_Charge:           0.0099999
##########                     HBond_Acceptors:                   5
##########                        HBond_Donors:                   1
##########                         Heavy_Atoms:                  18
##########                          Grid_Score:          -25.590496
##########                     Grid_vdw_energy:          -24.657476
##########                      Grid_es_energy:           -0.933020
##########           Internal_energy_repulsive:            3.669595

@<TRIPOS>MOLECULE
ZINC000820901229
 33 35 1 0 0
SMALL
USER_CHARGES


@<TRIPOS>ATOM
      1 O1        -11.8184    0.1584   62.3758 O.2     1  ZINC000820901229   -0.5300
      2 C2        -10.6823   -0.0430   62.7609 C.2     1  ZINC000820901229    0.6000
      3 N3         -9.8345   -0.7712   62.0076 N.am    1  ZINC000820901229   -0.7100
      4 C4        -10.2831   -1.3252   60.7277 C.3     1  ZINC000820901229    0.1600
      5 H5        -11.3629   -1.2105   60.6323 H       1  ZINC000820901229    0.1000
      6 C6         -9.9054   -2.8127   60.6407 C.3     1  ZINC000820901229   -0.1300
      7 C7        -10.2997   -3.4115   59.2939 C.3     1  ZINC000820901229   -0.1100
      8 C8         -9.7019   -2.6090   58.1264 C.3     1  ZINC000820901229   -0.1100
      9 C9        -10.1849   -1.1802   58.2666 C.3     1  ZINC000820901229    0.0800
     10 H10       -11.2733   -1.1646   58.3242 H       1  ZINC000820901229    0.0700
     11 O11        -9.7428   -0.2365   57.2975 O.3     1  ZINC000820901229   -0.3700
     12 C12        -9.9755    1.0634   57.8973 C.3     1  ZINC000820901229    0.0500
     13 C13        -9.9148    0.8729   59.4351 C.3     1  ZINC000820901229   -0.1500
     14 C14        -9.5847   -0.6128   59.5830 C.3     1  ZINC000820901229   -0.1400
     15 H15        -8.5067   -0.7681   59.6251 H       1  ZINC000820901229    0.0900
     16 C16       -10.2313    0.5139   64.0473 C.2     1  ZINC000820901229    0.0100
     17 C17       -10.8977    1.4891   64.7046 C.2     1  ZINC000820901229   -0.2200
     18 S18       -10.0578    1.8564   66.1473 S.3     1  ZINC000820901229    0.3100
     19 C19        -8.8651    0.6873   65.7909 C.2     1  ZINC000820901229   -0.0100
     20 Br20       -7.3709    0.3046   66.8849 Br      1  ZINC000820901229    0.0700
     21 N21        -9.1282    0.0984   64.6766 N.2     1  ZINC000820901229   -0.4100
     22 H22        -8.9273   -0.9283   62.3128 H       1  ZINC000820901229    0.4100
     23 H23        -8.8286   -2.9152   60.7745 H       1  ZINC000820901229    0.0700
     24 H24       -10.4154   -3.3569   61.4356 H       1  ZINC000820901229    0.0700
     25 H25        -9.9397   -4.4390   59.2415 H       1  ZINC000820901229    0.0800
     26 H26       -11.3862   -3.4107   59.2077 H       1  ZINC000820901229    0.0700
     27 H27        -8.6133   -2.6387   58.1752 H       1  ZINC000820901229    0.0700
     28 H28       -10.0429   -3.0242   57.1781 H       1  ZINC000820901229    0.0800
     29 H29        -9.2026    1.7629   57.5791 H       1  ZINC000820901229    0.0900
     30 H30       -10.9584    1.4352   57.6078 H       1  ZINC000820901229    0.0600
     31 H31        -9.1241    1.4856   59.8682 H       1  ZINC000820901229    0.0800
     32 H32       -10.8773    1.1060   59.8905 H       1  ZINC000820901229    0.0800
     33 H33       -11.8111    1.9598   64.3721 H       1  ZINC000820901229    0.2000
@<TRIPOS>BOND
     1     1     2    2
     2     2     3   am
     3     2    16    1
     4     3     4    1
     5     3    22    1
     6     4     5    1
     7     4    14    1
     8     4     6    1
     9     6     7    1
    10     6    23    1
    11     6    24    1
    12     7     8    1
    13     7    25    1
    14     7    26    1
    15     8     9    1
    16     8    27    1
    17     8    28    1
    18     9    10    1
    19     9    14    1
    20     9    11    1
    21    11    12    1
    22    12    13    1
    23    12    29    1
    24    12    30    1
    25    13    14    1
    26    13    31    1
    27    13    32    1
    28    14    15    1
    29    16    21    1
    30    16    17    2
    31    17    18    1
    32    17    33    1
    33    18    19    1
    34    19    20    1
    35    19    21    2
@<TRIPOS>SUBSTRUCTURE
     1 ZINC000820901229        1 TEMP              0 ****  ****    0 ROOT


##########                                Name:    ZINC001220212140
##########                DOCK_Rotatable_Bonds:                   6
##########                         Heavy_Atoms:                  28
##########                    Molecular_Weight:             379.459
##########                DOCK_Rotatable_Bonds:                   6
##########                       Formal_Charge:         -0.00999925
##########                     HBond_Acceptors:                   6
##########                        HBond_Donors:                   1
##########                         Heavy_Atoms:                  28
##########                          Grid_Score:          -25.320068
##########                     Grid_vdw_energy:          -24.363136
##########                      Grid_es_energy:           -0.956933
##########           Internal_energy_repulsive:          172.295166

@<TRIPOS>MOLECULE
ZINC001220212140
 53 56 1 0 0
SMALL
USER_CHARGES


@<TRIPOS>ATOM
      1 C1        -11.5657   -1.8183   52.1717 C.3     1  ZINC001220212140   -0.1700
      2 C2        -11.6272   -0.7311   53.2465 C.3     1  ZINC001220212140    0.0800
      3 H3        -12.4086   -0.9528   53.9735 H       1  ZINC001220212140    0.1200
      4 C4        -10.2565   -0.5739   53.9461 C.3     1  ZINC001220212140   -0.1100
      5 C5         -9.6120    0.5294   53.1290 C.ar    1  ZINC001220212140   -0.1500
      6 C6         -8.3101    0.9658   53.0321 C.ar    1  ZINC001220212140   -0.0700
      7 C7         -7.9928    2.0164   52.1797 C.ar    1  ZINC001220212140    0.1400
      8 N8         -6.6690    2.4648   52.0764 N.am    1  ZINC001220212140   -0.6800
      9 C9         -5.9499    2.1933   50.9694 C.2     1  ZINC001220212140    0.7200
     10 O10        -6.4496    1.5593   50.0601 O.2     1  ZINC001220212140   -0.5700
     11 N11        -4.6769    2.6245   50.8701 N.am    1  ZINC001220212140   -0.6300
     12 C12        -3.9520    3.3974   51.8893 C.3     1  ZINC001220212140    0.0900
     13 C13        -2.5255    3.6390   51.3526 C.3     1  ZINC001220212140   -0.1100
     14 C14        -2.3503    2.5049   50.3084 C.3     1  ZINC001220212140   -0.1300
     15 H15        -2.0554    1.5726   50.7899 H       1  ZINC001220212140    0.1200
     16 C16        -1.3573    2.8981   49.2451 C.2     1  ZINC001220212140    0.5300
     17 O17        -0.8043    3.9761   49.3009 O.2     1  ZINC001220212140   -0.5100
     18 N18        -1.0839    2.0519   48.2324 N.am    1  ZINC001220212140   -0.5700
     19 C19        -1.7520    0.7499   48.1651 C.3     1  ZINC001220212140    0.0700
     20 C20        -0.1619    2.4170   47.2453 C.ar    1  ZINC001220212140    0.1400
     21 C21         0.1159    1.5491   46.1974 C.ar    1  ZINC001220212140   -0.1100
     22 C22         1.0265    1.9125   45.2246 C.ar    1  ZINC001220212140   -0.1100
     23 C23         1.6616    3.1390   45.2935 C.ar    1  ZINC001220212140   -0.1200
     24 C24         1.3875    4.0052   46.3359 C.ar    1  ZINC001220212140   -0.1100
     25 C25         0.4731    3.6506   47.3083 C.ar    1  ZINC001220212140   -0.1200
     26 C26        -3.7784    2.3940   49.7242 C.3     1  ZINC001220212140    0.1400
     27 C27        -8.9943    2.6186   51.4307 C.ar    1  ZINC001220212140   -0.1100
     28 C28       -10.2981    2.1807   51.5333 C.ar    1  ZINC001220212140   -0.1200
     29 C29       -10.6220    1.1308   52.3886 C.ar    1  ZINC001220212140    0.0900
     30 O30       -11.8362    0.5612   52.6523 O.3     1  ZINC001220212140   -0.3000
     31 H31       -10.7876   -1.5714   51.4493 H       1  ZINC001220212140    0.0600
     32 H32       -11.3379   -2.7772   52.6374 H       1  ZINC001220212140    0.0800
     33 H33       -12.5274   -1.8810   51.6627 H       1  ZINC001220212140    0.0700
     34 H34       -10.3821   -0.2669   54.9844 H       1  ZINC001220212140    0.0900
     35 H35        -9.6779   -1.4953   53.8811 H       1  ZINC001220212140    0.0900
     36 H36        -7.5361    0.4921   53.6177 H       1  ZINC001220212140    0.1400
     37 H37        -6.2703    2.9707   52.8017 H       1  ZINC001220212140    0.4100
     38 H38        -4.4520    4.3517   52.0560 H       1  ZINC001220212140    0.0700
     39 H39        -3.9071    2.8326   52.8205 H       1  ZINC001220212140    0.0700
     40 H40        -2.4531    4.6167   50.8760 H       1  ZINC001220212140    0.1000
     41 H41        -1.7912    3.5435   52.1524 H       1  ZINC001220212140    0.0900
     42 H42        -2.6759    0.8447   47.5947 H       1  ZINC001220212140    0.0700
     43 H43        -1.0958    0.0296   47.6767 H       1  ZINC001220212140    0.0800
     44 H44        -1.9815    0.4066   49.1739 H       1  ZINC001220212140    0.0800
     45 H45        -0.3793    0.5909   46.1434 H       1  ZINC001220212140    0.1200
     46 H46         1.2429    1.2380   44.4094 H       1  ZINC001220212140    0.1300
     47 H47         2.3735    3.4206   44.5318 H       1  ZINC001220212140    0.1300
     48 H48         1.8857    4.9620   46.3873 H       1  ZINC001220212140    0.1300
     49 H49         0.2594    4.3275   48.1221 H       1  ZINC001220212140    0.1200
     50 H50        -3.9405    1.4012   49.3044 H       1  ZINC001220212140    0.0900
     51 H51        -3.9378    3.1587   48.9641 H       1  ZINC001220212140    0.0700
     52 H52        -8.7516    3.4338   50.7652 H       1  ZINC001220212140    0.1300
     53 H53       -11.0717    2.6545   50.9472 H       1  ZINC001220212140    0.1300
@<TRIPOS>BOND
     1     1     2    1
     2     1    31    1
     3     1    32    1
     4     1    33    1
     5     2     3    1
     6     2    30    1
     7     2     4    1
     8     4     5    1
     9     4    34    1
    10     4    35    1
    11     5    29   ar
    12     5     6   ar
    13     6     7   ar
    14     6    36    1
    15     7     8    1
    16     7    27   ar
    17     8     9   am
    18     8    37    1
    19     9    10    2
    20     9    11   am
    21    11    26    1
    22    11    12    1
    23    12    13    1
    24    12    38    1
    25    12    39    1
    26    13    14    1
    27    13    40    1
    28    13    41    1
    29    14    15    1
    30    14    16    1
    31    14    26    1
    32    16    17    2
    33    16    18   am
    34    18    19    1
    35    18    20    1
    36    19    42    1
    37    19    43    1
    38    19    44    1
    39    20    25   ar
    40    20    21   ar
    41    21    22   ar
    42    21    45    1
    43    22    23   ar
    44    22    46    1
    45    23    24   ar
    46    23    47    1
    47    24    25   ar
    48    24    48    1
    49    25    49    1
    50    26    50    1
    51    26    51    1
    52    27    28   ar
    53    27    52    1
    54    28    29   ar
    55    28    53    1
    56    29    30    1
@<TRIPOS>SUBSTRUCTURE
     1 ZINC001220212140        1 TEMP              0 ****  ****    0 ROOT


##########                                Name:    ZINC000550782577
##########                DOCK_Rotatable_Bonds:                   5
##########                         Heavy_Atoms:                  25
##########                    Molecular_Weight:              338.45
##########                DOCK_Rotatable_Bonds:                   5
##########                       Formal_Charge:         -0.00999954
##########                     HBond_Acceptors:                   4
##########                        HBond_Donors:                   0
##########                         Heavy_Atoms:                  25
##########                          Grid_Score:          -25.192469
##########                     Grid_vdw_energy:          -25.170689
##########                      Grid_es_energy:           -0.021780
##########           Internal_energy_repulsive:           31.010841

@<TRIPOS>MOLECULE
ZINC000550782577
 51 53 1 0 0
SMALL
USER_CHARGES


@<TRIPOS>ATOM
      1 C1        -11.8541    0.8711   58.9828 C.3     1  ZINC000550782577    0.0700
      2 N2        -11.7458   -0.0044   60.1524 N.am    1  ZINC000550782577   -0.5900
      3 C3        -11.9123   -1.3349   60.0160 C.2     1  ZINC000550782577    0.5800
      4 O4        -11.8224   -2.0613   60.9864 O.2     1  ZINC000550782577   -0.5400
      5 C5        -12.2043   -1.9111   58.6852 C.ar    1  ZINC000550782577    0.0300
      6 C6        -13.5249   -2.0012   58.2472 C.ar    1  ZINC000550782577   -0.0600
      7 C7        -13.7857   -2.5420   57.0007 C.ar    1  ZINC000550782577   -0.1200
      8 C8        -12.7122   -2.9774   56.2290 C.ar    1  ZINC000550782577    0.1100
      9 O9        -12.9229   -3.5139   55.0002 O.3     1  ZINC000550782577   -0.3000
     10 C10       -12.5348   -2.7259   53.8730 C.3     1  ZINC000550782577    0.1000
     11 C11       -12.2467   -1.2936   54.3270 C.3     1  ZINC000550782577   -0.2000
     12 C12       -11.2758   -3.3239   53.2419 C.3     1  ZINC000550782577   -0.1400
     13 C13       -13.6665   -2.7168   52.8433 C.3     1  ZINC000550782577   -0.2000
     14 C14       -11.4192   -2.8557   56.7323 C.ar    1  ZINC000550782577   -0.0100
     15 N15       -11.2053   -2.3325   57.9179 N.ar    1  ZINC000550782577   -0.4100
     16 C16       -11.4566    0.5663   61.4704 C.3     1  ZINC000550782577    0.1400
     17 H17       -11.3787    1.6506   61.3916 H       1  ZINC000550782577    0.1100
     18 C18       -12.5778    0.1989   62.4493 C.3     1  ZINC000550782577   -0.1300
     19 C19       -12.3759    0.9980   63.7352 C.3     1  ZINC000550782577   -0.0800
     20 C20       -10.9651    0.8418   64.2395 C.ar    1  ZINC000550782577   -0.0800
     21 C21       -10.7113    1.1740   65.5637 C.ar    1  ZINC000550782577   -0.1200
     22 C22        -9.4387    1.0583   66.0840 C.ar    1  ZINC000550782577   -0.1200
     23 C23        -8.4072    0.6088   65.2811 C.ar    1  ZINC000550782577   -0.1200
     24 C24        -8.6579    0.2759   63.9658 C.ar    1  ZINC000550782577   -0.1200
     25 C25        -9.9387    0.3883   63.4412 C.ar    1  ZINC000550782577   -0.0700
     26 C26       -10.1442   -0.0063   62.0020 C.3     1  ZINC000550782577   -0.0900
     27 H27       -12.9031    1.1035   58.7988 H       1  ZINC000550782577    0.0600
     28 H28       -11.3045    1.7940   59.1677 H       1  ZINC000550782577    0.0600
     29 H29       -11.4355    0.3671   58.1117 H       1  ZINC000550782577    0.1100
     30 H30       -14.3337   -1.6536   58.8728 H       1  ZINC000550782577    0.1600
     31 H31       -14.7986   -2.6248   56.6350 H       1  ZINC000550782577    0.1500
     32 H32       -11.2274   -1.2312   54.7080 H       1  ZINC000550782577    0.0700
     33 H33       -12.3610   -0.6147   53.4819 H       1  ZINC000550782577    0.0800
     34 H34       -12.9467   -1.0142   55.1146 H       1  ZINC000550782577    0.0800
     35 H35       -11.4811   -4.3444   52.9185 H       1  ZINC000550782577    0.0700
     36 H36       -10.9799   -2.7228   52.3821 H       1  ZINC000550782577    0.0800
     37 H37       -10.4697   -3.3304   53.9755 H       1  ZINC000550782577    0.0700
     38 H38       -14.5620   -2.2865   53.2916 H       1  ZINC000550782577    0.0800
     39 H39       -13.3686   -2.1195   51.9815 H       1  ZINC000550782577    0.0800
     40 H40       -13.8749   -3.7377   52.5234 H       1  ZINC000550782577    0.0700
     41 H41       -10.5820   -3.1917   56.1385 H       1  ZINC000550782577    0.1900
     42 H42       -13.5442    0.4475   62.0107 H       1  ZINC000550782577    0.0700
     43 H43       -12.5377   -0.8678   62.6698 H       1  ZINC000550782577    0.0700
     44 H44       -12.5727    2.0518   63.5382 H       1  ZINC000550782577    0.0800
     45 H45       -13.0709    0.6389   64.4944 H       1  ZINC000550782577    0.0800
     46 H46       -11.5165    1.5262   66.1913 H       1  ZINC000550782577    0.1200
     47 H47        -9.2490    1.3183   67.1149 H       1  ZINC000550782577    0.1200
     48 H48        -7.4083    0.5188   65.6819 H       1  ZINC000550782577    0.1200
     49 H49        -7.8513   -0.0749   63.3391 H       1  ZINC000550782577    0.1200
     50 H50       -10.1706   -1.0934   61.9276 H       1  ZINC000550782577    0.0800
     51 H51        -9.3167    0.3743   61.4033 H       1  ZINC000550782577    0.0800
@<TRIPOS>BOND
     1     1     2    1
     2     1    27    1
     3     1    28    1
     4     1    29    1
     5     2     3   am
     6     2    16    1
     7     3     4    2
     8     3     5    1
     9     5    15   ar
    10     5     6   ar
    11     6     7   ar
    12     6    30    1
    13     7     8   ar
    14     7    31    1
    15     8     9    1
    16     8    14   ar
    17     9    10    1
    18    10    11    1
    19    10    12    1
    20    10    13    1
    21    11    32    1
    22    11    33    1
    23    11    34    1
    24    12    35    1
    25    12    36    1
    26    12    37    1
    27    13    38    1
    28    13    39    1
    29    13    40    1
    30    14    15   ar
    31    14    41    1
    32    16    17    1
    33    16    26    1
    34    16    18    1
    35    18    19    1
    36    18    42    1
    37    18    43    1
    38    19    20    1
    39    19    44    1
    40    19    45    1
    41    20    25   ar
    42    20    21   ar
    43    21    22   ar
    44    21    46    1
    45    22    23   ar
    46    22    47    1
    47    23    24   ar
    48    23    48    1
    49    24    25   ar
    50    24    49    1
    51    25    26    1
    52    26    50    1
    53    26    51    1
@<TRIPOS>SUBSTRUCTURE
     1 ZINC000550782577        1 TEMP              0 ****  ****    0 ROOT


##########                                Name:    ZINC000950547210
##########                DOCK_Rotatable_Bonds:                   5
##########                         Heavy_Atoms:                  25
##########                    Molecular_Weight:              346.47
##########                DOCK_Rotatable_Bonds:                   5
##########                       Formal_Charge:         5.58794e-07
##########                     HBond_Acceptors:                   5
##########                        HBond_Donors:                   1
##########                         Heavy_Atoms:                  25
##########                          Grid_Score:          -24.975006
##########                     Grid_vdw_energy:          -24.236715
##########                      Grid_es_energy:           -0.738290
##########           Internal_energy_repulsive:           20.437595

@<TRIPOS>MOLECULE
ZINC000950547210
 55 58 1 0 0
SMALL
USER_CHARGES


@<TRIPOS>ATOM
      1 O1        -12.5133   -2.9606   56.6605 O.2     1  ZINC000950547210   -0.5200
      2 C2        -11.5331   -2.3550   56.2816 C.2     1  ZINC000950547210    0.5200
      3 N3        -10.7423   -1.7269   57.1740 N.am    1  ZINC000950547210   -0.7300
      4 C4        -11.0699   -1.7706   58.6012 C.3     1  ZINC000950547210    0.1300
      5 H5        -11.3770   -2.7804   58.8732 H       1  ZINC000950547210    0.0900
      6 C6         -9.8395   -1.3729   59.4201 C.3     1  ZINC000950547210   -0.1300
      7 C7        -10.1710   -1.4499   60.9121 C.3     1  ZINC000950547210   -0.1300
      8 C8        -11.3023   -0.4675   61.2311 C.3     1  ZINC000950547210    0.1000
      9 N9        -12.4393   -0.7517   60.3450 N.am    1  ZINC000950547210   -0.6100
     10 C10       -13.6681   -0.9709   60.8534 C.2     1  ZINC000950547210    0.5600
     11 O11       -13.8439   -0.9344   62.0563 O.2     1  ZINC000950547210   -0.5200
     12 C12       -14.7967   -1.2542   59.9535 C.2     1  ZINC000950547210   -0.1400
     13 C13       -15.5649   -0.2545   59.5596 C.2     1  ZINC000950547210   -0.1500
     14 C14       -16.7440   -0.4505   58.6488 C.3     1  ZINC000950547210    0.0900
     15 O15       -16.6710   -1.7316   58.0201 O.3     1  ZINC000950547210   -0.3700
     16 C16       -16.4533   -2.8014   58.9477 C.3     1  ZINC000950547210    0.0600
     17 C17       -15.0327   -2.6715   59.5084 C.3     1  ZINC000950547210   -0.1100
     18 C18       -12.2119   -0.7925   58.8940 C.3     1  ZINC000950547210    0.1000
     19 C19       -11.1962   -2.3102   54.8134 C.3     1  ZINC000950547210   -0.1000
     20 H20       -10.4007   -3.0245   54.6012 H       1  ZINC000950547210    0.1000
     21 C21       -10.7299   -0.9016   54.4400 C.3     1  ZINC000950547210   -0.1100
     22 C22       -11.6598   -0.3230   53.3717 C.3     1  ZINC000950547210   -0.0900
     23 C23       -11.6286   -1.2164   52.1302 C.3     1  ZINC000950547210   -0.1100
     24 C24       -12.0950   -2.6249   52.5036 C.3     1  ZINC000950547210   -0.1100
     25 C25       -12.4371   -2.6705   53.9942 C.3     1  ZINC000950547210   -0.0600
     26 C26       -13.5538   -1.6678   54.2920 C.3     1  ZINC000950547210   -0.1300
     27 C27       -13.0873   -0.2593   53.9186 C.3     1  ZINC000950547210   -0.1200
     28 H28        -9.9562   -1.2459   56.8712 H       1  ZINC000950547210    0.4000
     29 H29        -9.0181   -2.0532   59.1949 H       1  ZINC000950547210    0.0800
     30 H30        -9.5474   -0.3542   59.1650 H       1  ZINC000950547210    0.0700
     31 H31       -10.4870   -2.4625   61.1628 H       1  ZINC000950547210    0.0700
     32 H32        -9.2876   -1.1892   61.4950 H       1  ZINC000950547210    0.0900
     33 H33       -11.6095   -0.5887   62.2699 H       1  ZINC000950547210    0.0900
     34 H34       -10.9571    0.5533   61.0668 H       1  ZINC000950547210    0.0700
     35 H35       -15.3371    0.7427   59.9061 H       1  ZINC000950547210    0.1200
     36 H36       -17.6641   -0.3846   59.2293 H       1  ZINC000950547210    0.0700
     37 H37       -16.7441    0.3274   57.8853 H       1  ZINC000950547210    0.1100
     38 H38       -17.1785   -2.7363   59.7588 H       1  ZINC000950547210    0.0600
     39 H39       -16.5575   -3.7577   58.4351 H       1  ZINC000950547210    0.1000
     40 H40       -14.3118   -2.9407   58.7364 H       1  ZINC000950547210    0.0900
     41 H41       -14.9168   -3.3394   60.3618 H       1  ZINC000950547210    0.0900
     42 H42       -11.9407    0.2017   58.5385 H       1  ZINC000950547210    0.0700
     43 H43       -13.1191   -1.1275   58.3912 H       1  ZINC000950547210    0.1000
     44 H44       -10.7520   -0.2651   55.3245 H       1  ZINC000950547210    0.0700
     45 H45        -9.7129   -0.9470   54.0504 H       1  ZINC000950547210    0.0700
     46 H46       -11.3276    0.6805   53.1058 H       1  ZINC000950547210    0.0700
     47 H47       -12.2912   -0.8041   51.3691 H       1  ZINC000950547210    0.0600
     48 H48       -10.6116   -1.2617   51.7406 H       1  ZINC000950547210    0.0600
     49 H49       -12.9791   -2.8816   51.9199 H       1  ZINC000950547210    0.0700
     50 H50       -11.2996   -3.3392   52.2913 H       1  ZINC000950547210    0.0600
     51 H51       -12.7693   -3.6739   54.2601 H       1  ZINC000950547210    0.0800
     52 H52       -14.4378   -1.9245   53.7083 H       1  ZINC000950547210    0.0600
     53 H53       -13.7975   -1.7002   55.3539 H       1  ZINC000950547210    0.0900
     54 H54       -13.1096    0.3772   54.8031 H       1  ZINC000950547210    0.0600
     55 H55       -13.7499    0.1530   53.1575 H       1  ZINC000950547210    0.0600
@<TRIPOS>BOND
     1     1     2    2
     2     2     3   am
     3     2    19    1
     4     3     4    1
     5     3    28    1
     6     4     5    1
     7     4    18    1
     8     4     6    1
     9     6     7    1
    10     6    29    1
    11     6    30    1
    12     7     8    1
    13     7    31    1
    14     7    32    1
    15     8     9    1
    16     8    33    1
    17     8    34    1
    18     9    10   am
    19     9    18    1
    20    10    11    2
    21    10    12    1
    22    12    17    1
    23    12    13    2
    24    13    14    1
    25    13    35    1
    26    14    15    1
    27    14    36    1
    28    14    37    1
    29    15    16    1
    30    16    17    1
    31    16    38    1
    32    16    39    1
    33    17    40    1
    34    17    41    1
    35    18    42    1
    36    18    43    1
    37    19    20    1
    38    19    25    1
    39    19    21    1
    40    21    22    1
    41    21    44    1
    42    21    45    1
    43    22    27    1
    44    22    23    1
    45    22    46    1
    46    23    24    1
    47    23    47    1
    48    23    48    1
    49    24    25    1
    50    24    49    1
    51    24    50    1
    52    25    26    1
    53    25    51    1
    54    26    27    1
    55    26    52    1
    56    26    53    1
    57    27    54    1
    58    27    55    1
@<TRIPOS>SUBSTRUCTURE
     1 ZINC000950547210        1 TEMP              0 ****  ****    0 ROOT


##########                                Name:    ZINC000793092912
##########                DOCK_Rotatable_Bonds:                   4
##########                         Heavy_Atoms:                  26
##########                    Molecular_Weight:               407.2
##########                DOCK_Rotatable_Bonds:                   4
##########                       Formal_Charge:         2.90573e-07
##########                     HBond_Acceptors:                  10
##########                        HBond_Donors:                   1
##########                         Heavy_Atoms:                  26
##########                          Grid_Score:          -24.438686
##########                     Grid_vdw_energy:          -23.913874
##########                      Grid_es_energy:           -0.524814
##########           Internal_energy_repulsive:           12.929302

@<TRIPOS>MOLECULE
ZINC000793092912
 40 43 1 0 0
SMALL
USER_CHARGES


@<TRIPOS>ATOM
      1 C1        -14.8329   -3.1895   60.5607 C.3     1  ZINC000793092912   -0.1300
      2 C2        -14.1283   -2.7545   59.2741 C.3     1  ZINC000793092912   -0.0800
      3 C3        -12.6620   -2.3830   59.4326 C.3     1  ZINC000793092912   -0.1100
      4 C4        -11.7715   -3.0977   58.4336 C.3     1  ZINC000793092912    0.1100
      5 N5        -12.3696   -3.1483   57.1103 N.am    1  ZINC000793092912   -0.5700
      6 C6        -11.6798   -2.6481   56.0661 C.2     1  ZINC000793092912    0.5100
      7 O7        -10.5795   -2.1666   56.2404 O.2     1  ZINC000793092912   -0.5100
      8 C8        -12.2693   -2.6863   54.6945 C.2     1  ZINC000793092912    0.5100
      9 O9        -11.8462   -3.4744   53.8739 O.2     1  ZINC000793092912   -0.4900
     10 N10       -13.2710   -1.8460   54.3679 N.am    1  ZINC000793092912   -0.6400
     11 C11       -13.8231   -1.8818   53.0834 C.ar    1  ZINC000793092912    0.1600
     12 C12       -15.0201   -2.5494   52.8603 C.ar    1  ZINC000793092912   -0.1200
     13 C13       -15.5667   -2.5857   51.5917 C.ar    1  ZINC000793092912   -0.0600
     14 C14       -14.9222   -1.9569   50.5388 C.ar    1  ZINC000793092912    0.0200
     15 O15       -15.2456   -1.8480   49.2163 O.3     1  ZINC000793092912   -0.2800
     16 C16       -14.4454   -0.7618   48.7131 C.3     1  ZINC000793092912    0.5700
     17 F17       -14.0670   -1.0028   47.3881 F       1  ZINC000793092912   -0.1100
     18 F18       -15.1410    0.4479   48.8120 F       1  ZINC000793092912   -0.1500
     19 O19       -13.2926   -0.7578   49.5756 O.3     1  ZINC000793092912   -0.2800
     20 C20       -13.7208   -1.2862   50.7593 C.ar    1  ZINC000793092912    0.0500
     21 C21       -13.1769   -1.2448   52.0315 C.ar    1  ZINC000793092912   -0.0900
     22 C22       -13.6864   -3.7201   56.8719 C.3     1  ZINC000793092912    0.1100
     23 C23       -14.6621   -3.3234   57.9700 C.3     1  ZINC000793092912   -0.1200
     24 H24       -15.5184   -3.9891   58.0776 H       1  ZINC000793092912    0.1400
     25 C25       -14.9320   -1.8655   58.3100 C.3     1  ZINC000793092912    0.0000
     26 Cl26      -16.6154   -1.4151   58.7725 Cl      1  ZINC000793092912   -0.0800
     27 Cl27      -14.0130   -0.6122   57.3959 Cl      1  ZINC000793092912   -0.0900
     28 H28       -14.7651   -4.2725   60.6639 H       1  ZINC000793092912    0.0800
     29 H29       -14.3543   -2.7124   61.4161 H       1  ZINC000793092912    0.0700
     30 H30       -15.8809   -2.8933   60.5190 H       1  ZINC000793092912    0.0700
     31 H31       -12.5538   -1.3072   59.2951 H       1  ZINC000793092912    0.0900
     32 H32       -12.3394   -2.6420   60.4412 H       1  ZINC000793092912    0.1000
     33 H33       -10.8173   -2.5746   58.3716 H       1  ZINC000793092912    0.1100
     34 H34       -11.5941   -4.1154   58.7816 H       1  ZINC000793092912    0.0800
     35 H35       -13.6091   -1.2162   55.0237 H       1  ZINC000793092912    0.4300
     36 H36       -15.5244   -3.0412   53.6791 H       1  ZINC000793092912    0.1500
     37 H37       -16.4979   -3.1054   51.4205 H       1  ZINC000793092912    0.1500
     38 H38       -12.2489   -0.7207   52.2055 H       1  ZINC000793092912    0.1600
     39 H39       -14.0699   -3.3492   55.9214 H       1  ZINC000793092912    0.1400
     40 H40       -13.6006   -4.8055   56.8219 H       1  ZINC000793092912    0.1000
@<TRIPOS>BOND
     1     1     2    1
     2     1    28    1
     3     1    29    1
     4     1    30    1
     5     2    23    1
     6     2    25    1
     7     2     3    1
     8     3     4    1
     9     3    31    1
    10     3    32    1
    11     4     5    1
    12     4    33    1
    13     4    34    1
    14     5     6   am
    15     5    22    1
    16     6     7    2
    17     6     8    1
    18     8     9    2
    19     8    10   am
    20    10    11    1
    21    10    35    1
    22    11    21   ar
    23    11    12   ar
    24    12    13   ar
    25    12    36    1
    26    13    14   ar
    27    13    37    1
    28    14    20   ar
    29    14    15    1
    30    15    16    1
    31    16    17    1
    32    16    18    1
    33    16    19    1
    34    19    20    1
    35    20    21   ar
    36    21    38    1
    37    22    23    1
    38    22    39    1
    39    22    40    1
    40    23    24    1
    41    23    25    1
    42    25    26    1
    43    25    27    1
@<TRIPOS>SUBSTRUCTURE
     1 ZINC000793092912        1 TEMP              0 ****  ****    0 ROOT


##########                                Name:    ZINC000507831344
##########                DOCK_Rotatable_Bonds:                   6
##########                         Heavy_Atoms:                  31
##########                    Molecular_Weight:              422.53
##########                DOCK_Rotatable_Bonds:                   6
##########                       Formal_Charge:          -0.0200002
##########                     HBond_Acceptors:                   8
##########                        HBond_Donors:                   2
##########                         Heavy_Atoms:                  31
##########                          Grid_Score:          -24.107328
##########                     Grid_vdw_energy:          -21.130426
##########                      Grid_es_energy:           -2.976902
##########           Internal_energy_repulsive:           31.137159

@<TRIPOS>MOLECULE
ZINC000507831344
 61 64 1 0 0
SMALL
USER_CHARGES


@<TRIPOS>ATOM
      1 C1        -18.1111    0.9432   58.3389 C.3     1  ZINC000507831344   -0.1000
      2 C2        -16.6335    0.7334   58.1290 C.ar    1  ZINC000507831344   -0.0800
      3 C3        -15.7688    0.7169   59.2076 C.ar    1  ZINC000507831344   -0.0800
      4 C4        -14.4100    0.5193   58.9664 C.ar    1  ZINC000507831344    0.0900
      5 N5        -13.4969    0.4947   60.0298 N.am    1  ZINC000507831344   -0.6700
      6 C6        -13.7129   -0.3154   61.0849 C.2     1  ZINC000507831344    0.5100
      7 O7        -14.6974   -1.0234   61.1145 O.2     1  ZINC000507831344   -0.5100
      8 C8        -12.7312   -0.3419   62.2282 C.3     1  ZINC000507831344   -0.1400
      9 C9        -11.9154    0.9525   62.2299 C.3     1  ZINC000507831344   -0.0500
     10 C10       -11.1420    1.0570   63.5191 C.2     1  ZINC000507831344   -0.2200
     11 C11        -9.9005    0.5131   63.6201 C.2     1  ZINC000507831344    0.2100
     12 C12        -9.2828   -0.2005   62.4453 C.3     1  ZINC000507831344   -0.1400
     13 N13        -9.2225    0.6210   64.7938 N.pl3   1  ZINC000507831344   -0.3000
     14 N14        -7.9573    0.1732   65.1922 N.am    1  ZINC000507831344   -0.5100
     15 C15        -7.7575    0.5427   66.4719 C.2     1  ZINC000507831344    0.5500
     16 O16        -6.7577    0.3143   67.1334 O.2     1  ZINC000507831344   -0.5400
     17 C17        -8.8873    1.2306   66.9118 C.2     1  ZINC000507831344   -0.3500
     18 C18        -9.7955    1.2737   65.8563 C.2     1  ZINC000507831344    0.3500
     19 N19       -11.0182    1.8062   65.7471 N.2     1  ZINC000507831344   -0.4800
     20 C20       -11.6932    1.7200   64.6211 C.2     1  ZINC000507831344    0.2500
     21 C21       -13.0685    2.3280   64.5214 C.3     1  ZINC000507831344   -0.1200
     22 C22       -13.9729    0.3468   57.6622 C.ar    1  ZINC000507831344    0.0800
     23 N23       -14.8263    0.3682   56.6560 N.ar    1  ZINC000507831344   -0.4900
     24 C24       -16.1234    0.5481   56.8481 C.ar    1  ZINC000507831344    0.2800
     25 N25       -16.9856    0.5627   55.7551 N.3     1  ZINC000507831344   -0.4800
     26 C26       -17.1314    1.9216   55.2180 C.3     1  ZINC000507831344    0.0600
     27 C27       -18.1930    1.9247   54.1157 C.3     1  ZINC000507831344   -0.1200
     28 C28       -17.7708    0.9592   53.0047 C.3     1  ZINC000507831344   -0.1200
     29 C29       -17.5788   -0.4386   53.5997 C.3     1  ZINC000507831344   -0.1100
     30 C30       -16.5351   -0.3731   54.7169 C.3     1  ZINC000507831344    0.0900
     31 H31       -15.5850   -0.0306   54.3068 H       1  ZINC000507831344    0.0600
     32 C32       -16.3547   -1.7641   55.3282 C.3     1  ZINC000507831344   -0.1400
     33 H33       -18.6109   -0.0239   58.3953 H       1  ZINC000507831344    0.0700
     34 H34       -18.2720    1.4901   59.2679 H       1  ZINC000507831344    0.0600
     35 H35       -18.5189    1.5149   57.5052 H       1  ZINC000507831344    0.0800
     36 H36       -16.1372    0.8544   60.2134 H       1  ZINC000507831344    0.1500
     37 H37       -12.7096    1.0610   60.0063 H       1  ZINC000507831344    0.4100
     38 H38       -13.2727   -0.4313   63.1699 H       1  ZINC000507831344    0.1000
     39 H39       -12.0611   -1.1936   62.1120 H       1  ZINC000507831344    0.1000
     40 H40       -11.2213    0.9456   61.3894 H       1  ZINC000507831344    0.0900
     41 H41       -12.5875    1.8057   62.1391 H       1  ZINC000507831344    0.1000
     42 H42        -8.7202    0.5121   61.8423 H       1  ZINC000507831344    0.1000
     43 H43        -8.6121   -0.9806   62.8059 H       1  ZINC000507831344    0.0800
     44 H44       -10.0691   -0.6493   61.8383 H       1  ZINC000507831344    0.1100
     45 H45        -7.3307   -0.3202   64.6402 H       1  ZINC000507831344    0.4400
     46 H46        -9.0326    1.6539   67.8947 H       1  ZINC000507831344    0.1700
     47 H47       -13.3311    2.7907   65.4728 H       1  ZINC000507831344    0.0900
     48 H48       -13.0758    3.0835   63.7357 H       1  ZINC000507831344    0.1000
     49 H49       -13.7935    1.5495   64.2835 H       1  ZINC000507831344    0.0900
     50 H50       -12.9218    0.1935   57.4674 H       1  ZINC000507831344    0.1600
     51 H51       -17.4359    2.5973   56.0173 H       1  ZINC000507831344    0.0700
     52 H52       -16.1786    2.2533   54.8056 H       1  ZINC000507831344    0.0500
     53 H53       -19.1494    1.6062   54.5306 H       1  ZINC000507831344    0.0700
     54 H54       -18.2899    2.9303   53.7065 H       1  ZINC000507831344    0.0700
     55 H55       -18.5447    0.9255   52.2379 H       1  ZINC000507831344    0.0700
     56 H56       -16.8340    1.2990   52.5633 H       1  ZINC000507831344    0.0600
     57 H57       -18.5255   -0.7942   54.0064 H       1  ZINC000507831344    0.0700
     58 H58       -17.2369   -1.1214   52.8219 H       1  ZINC000507831344    0.0700
     59 H59       -15.9370   -2.4381   54.5804 H       1  ZINC000507831344    0.0600
     60 H60       -15.6774   -1.7016   56.1799 H       1  ZINC000507831344    0.0500
     61 H61       -17.3213   -2.1433   55.6598 H       1  ZINC000507831344    0.0600
@<TRIPOS>BOND
     1     1     2    1
     2     1    33    1
     3     1    34    1
     4     1    35    1
     5     2    24   ar
     6     2     3   ar
     7     3     4   ar
     8     3    36    1
     9     4     5    1
    10     4    22   ar
    11     5     6   am
    12     5    37    1
    13     6     7    2
    14     6     8    1
    15     8     9    1
    16     8    38    1
    17     8    39    1
    18     9    10    1
    19     9    40    1
    20     9    41    1
    21    10    20    1
    22    10    11    2
    23    11    12    1
    24    11    13    1
    25    12    42    1
    26    12    43    1
    27    12    44    1
    28    13    18    1
    29    13    14    1
    30    14    15   am
    31    14    45    1
    32    15    16    2
    33    15    17    1
    34    17    18    2
    35    17    46    1
    36    18    19    1
    37    19    20    2
    38    20    21    1
    39    21    47    1
    40    21    48    1
    41    21    49    1
    42    22    23   ar
    43    22    50    1
    44    23    24   ar
    45    24    25    1
    46    25    30    1
    47    25    26    1
    48    26    27    1
    49    26    51    1
    50    26    52    1
    51    27    28    1
    52    27    53    1
    53    27    54    1
    54    28    29    1
    55    28    55    1
    56    28    56    1
    57    29    30    1
    58    29    57    1
    59    29    58    1
    60    30    31    1
    61    30    32    1
    62    32    59    1
    63    32    60    1
    64    32    61    1
@<TRIPOS>SUBSTRUCTURE
     1 ZINC000507831344        1 TEMP              0 ****  ****    0 ROOT


##########                                Name:    ZINC000569288350
##########                DOCK_Rotatable_Bonds:                   3
##########                         Heavy_Atoms:                  19
##########                    Molecular_Weight:             393.559
##########                DOCK_Rotatable_Bonds:                   3
##########                       Formal_Charge:           0.0299999
##########                     HBond_Acceptors:                   5
##########                        HBond_Donors:                   1
##########                         Heavy_Atoms:                  19
##########                          Grid_Score:          -22.617239
##########                     Grid_vdw_energy:          -22.494055
##########                      Grid_es_energy:           -0.123184
##########           Internal_energy_repulsive:            4.656774

@<TRIPOS>MOLECULE
ZINC000569288350
 26 27 1 0 0
SMALL
USER_CHARGES


@<TRIPOS>ATOM
      1 O1        -11.3747   -3.9242   58.1122 O.2     1  ZINC000569288350   -0.4800
      2 C2        -11.9729   -2.8660   58.1431 C.2     1  ZINC000569288350    0.5700
      3 N3        -12.5054   -2.3597   57.0132 N.am    1  ZINC000569288350   -0.6600
      4 C4        -12.3648   -3.0488   55.8037 C.ar    1  ZINC000569288350    0.1800
      5 C5        -13.0265   -4.2538   55.6087 C.ar    1  ZINC000569288350   -0.1200
      6 C6        -12.8866   -4.9331   54.4138 C.ar    1  ZINC000569288350   -0.0600
      7 C7        -12.0882   -4.4153   53.4113 C.ar    1  ZINC000569288350   -0.1500
      8 C8        -11.4258   -3.2136   53.6006 C.ar    1  ZINC000569288350    0.1300
      9 F9        -10.6466   -2.7098   52.6187 F       1  ZINC000569288350   -0.1200
     10 C10       -11.5672   -2.5257   54.7932 C.ar    1  ZINC000569288350   -0.1000
     11 Cl11      -10.7382   -1.0192   55.0316 Cl      1  ZINC000569288350   -0.0400
     12 C12       -12.1213   -2.1390   59.4192 C.ar    1  ZINC000569288350   -0.1400
     13 C13       -13.3266   -2.1985   60.1261 C.ar    1  ZINC000569288350    0.1400
     14 F14       -14.3601   -2.9226   59.6437 F       1  ZINC000569288350   -0.1200
     15 C15       -13.4568   -1.5142   61.3209 C.ar    1  ZINC000569288350   -0.1300
     16 C16       -12.3997   -0.7732   61.8151 C.ar    1  ZINC000569288350   -0.0600
     17 C17       -11.2044   -0.7100   61.1198 C.ar    1  ZINC000569288350   -0.0900
     18 C18       -11.0563   -1.3923   59.9302 C.ar    1  ZINC000569288350   -0.0500
     19 I19        -9.2452   -1.2935   58.8817 I       1  ZINC000569288350    0.0000
     20 H20       -12.9861   -1.5176   57.0386 H       1  ZINC000569288350    0.4200
     21 H21       -13.6502   -4.6603   56.3913 H       1  ZINC000569288350    0.1600
     22 H22       -13.4016   -5.8703   54.2630 H       1  ZINC000569288350    0.1500
     23 H23       -11.9802   -4.9490   52.4786 H       1  ZINC000569288350    0.1500
     24 H24       -14.3865   -1.5586   61.8687 H       1  ZINC000569288350    0.1500
     25 H25       -12.5070   -0.2405   62.7484 H       1  ZINC000569288350    0.1500
     26 H26       -10.3833   -0.1286   61.5126 H       1  ZINC000569288350    0.1500
@<TRIPOS>BOND
     1     1     2    2
     2     2     3   am
     3     2    12    1
     4     3     4    1
     5     3    20    1
     6     4    10   ar
     7     4     5   ar
     8     5     6   ar
     9     5    21    1
    10     6     7   ar
    11     6    22    1
    12     7     8   ar
    13     7    23    1
    14     8     9    1
    15     8    10   ar
    16    10    11    1
    17    12    18   ar
    18    12    13   ar
    19    13    14    1
    20    13    15   ar
    21    15    16   ar
    22    15    24    1
    23    16    17   ar
    24    16    25    1
    25    17    18   ar
    26    17    26    1
    27    18    19    1
@<TRIPOS>SUBSTRUCTURE
     1 ZINC000569288350        1 TEMP              0 ****  ****    0 ROOT

