
##########                                Name:     oleObject79.pdb
##########                DOCK_Rotatable_Bonds:                  12
##########                         Heavy_Atoms:                  53
##########                    Molecular_Weight:             725.376
##########                DOCK_Rotatable_Bonds:                  12
##########                       Formal_Charge:          0.00050066
##########                     HBond_Acceptors:                   8
##########                        HBond_Donors:                   4
##########                         Heavy_Atoms:                  53
##########                          Grid_Score:          -46.770264
##########                     Grid_vdw_energy:          -46.607468
##########                      Grid_es_energy:           -0.162795
##########           Internal_energy_repulsive:           42.041729

@<TRIPOS>MOLECULE
oleObject79.pdb
 102 108 1 0 0
SMALL
NO_CHARGES


@<TRIPOS>ATOM
      1 C          -8.9365   -2.9645   60.4698 C.ar    1  UNL        -0.0620
      2 C          -8.9763   -2.1028   61.5747 C.ar    1  UNL        -0.0590
      3 C          -9.9816   -1.1227   61.6895 C.ar    1  UNL        -0.0456
      4 C         -10.9699   -1.0058   60.6763 C.ar    1  UNL        -0.0185
      5 C         -10.9125   -1.8834   59.5718 C.ar    1  UNL        -0.0565
      6 C          -9.9062   -2.8541   59.4668 C.ar    1  UNL        -0.0619
      7 C         -12.1258    0.0104   60.7732 C.3     1  UNL         0.0931
      8 C         -11.6921    1.4852   60.8676 C.ar    1  UNL         0.0683
      9 C         -12.5171    2.4588   61.4871 C.ar    1  UNL        -0.0272
     10 C         -12.0609    3.7895   61.5398 C.ar    1  UNL        -0.0559
     11 C         -10.8134    4.1076   60.9844 C.ar    1  UNL        -0.0435
     12 C         -10.0610    3.0825   60.3931 C.ar    1  UNL         0.0272
     13 N         -10.4895    1.8078   60.3367 N.ar    1  UNL        -0.2587
     14 C         -13.8736    2.1121   62.0922 C.3     1  UNL        -0.0379
     15 N         -13.1745   -0.2634   59.7511 N.am    1  UNL        -0.2918
     16 C         -12.9782    0.1092   58.4195 C.2     1  UNL         0.2179
     17 O         -12.1193    0.9267   58.1331 O.2     1  UNL        -0.2772
     18 C         -14.1284   -0.2187   57.4296 C.3     1  UNL         0.0361
     19 C         -14.1027   -1.6906   56.9266 C.3     1  UNL        -0.0412
     20 C         -12.9724   -1.9835   55.9015 C.3     1  UNL        -0.0453
     21 C         -12.9116   -0.9845   54.7075 C.3     1  UNL        -0.0139
     22 C         -11.5604   -1.1851   53.9668 C.3     1  UNL         0.0171
     23 N         -11.4856   -0.3371   52.7597 N.pl3   1  UNL        -0.3290
     24 C         -12.5267   -0.6292   51.7549 C.3     1  UNL         0.0115
     25 C         -13.9368   -0.4883   52.3753 C.3     1  UNL        -0.0368
     26 C         -14.0674   -1.2824   53.6993 C.3     1  UNL        -0.0446
     27 C         -10.3870    0.4920   52.5102 C.ar    1  UNL         0.0476
     28 C         -10.5751    1.8879   52.4929 C.ar    1  UNL        -0.0375
     29 C          -9.5084    2.7572   52.2175 C.ar    1  UNL        -0.0388
     30 C          -8.2316    2.2507   51.9304 C.ar    1  UNL         0.0318
     31 C          -8.0308    0.8585   51.9630 C.ar    1  UNL        -0.0202
     32 C          -9.0938   -0.0168   52.2430 C.ar    1  UNL         0.0636
     33 CL         -8.7496   -1.7367   52.1751 Cl      1  UNL        -0.0822
     34 N          -7.1967    3.1441   51.6614 N.pl3   1  UNL        -0.3149
     35 C          -5.8437    2.9387   51.3963 C.ar    1  UNL         0.0302
     36 C          -4.8291    3.5101   52.1862 C.ar    1  UNL        -0.0402
     37 C          -3.4769    3.2587   51.9040 C.ar    1  UNL        -0.0525
     38 C          -3.0922    2.4214   50.8275 C.ar    1  UNL        -0.0182
     39 C          -4.1272    1.8396   50.0541 C.ar    1  UNL        -0.0525
     40 C          -5.4796    2.0877   50.3404 C.ar    1  UNL        -0.0402
     41 C          -1.6467    2.1521   50.5241 C.ar    1  UNL        -0.0177
     42 C          -0.6269    2.4749   51.4553 C.ar    1  UNL        -0.0439
     43 C           0.7374    2.2311   51.1847 C.ar    1  UNL         0.0111
     44 C           1.0872    1.6499   49.9483 C.ar    1  UNL        -0.0518
     45 C           0.0973    1.3204   49.0114 C.ar    1  UNL        -0.0609
     46 C          -1.2534    1.5673   49.2958 C.ar    1  UNL        -0.0543
     47 C           1.7215    2.5555   52.1241 C.2     1  UNL         0.1014
     48 N           1.4341    2.9216   53.3189 N.3     1  UNL        -0.2892
     49 N           3.0216    2.5010   51.8043 N.3     1  UNL        -0.2870
     50 C         -12.9697    0.4769   55.2517 C.3     1  UNL        -0.0453
     51 C         -14.1537    0.7361   56.2076 C.3     1  UNL        -0.0412
     52 C         -14.4026   -0.9641   60.1860 C.3     1  UNL         0.0037
     53 C          -9.9764   -0.2343   62.9291 C.3     1  UNL        -0.0394
     54 H          -8.1593   -3.7187   60.3925 H       1  UNL         0.0623
     55 H          -8.2228   -2.2024   62.3506 H       1  UNL         0.0626
     56 H         -11.6559   -1.8160   58.7846 H       1  UNL         0.0627
     57 H          -9.8812   -3.5210   58.6100 H       1  UNL         0.0623
     58 H         -12.6062   -0.1674   61.7366 H       1  UNL         0.0626
     59 H         -12.6623    4.5655   62.0047 H       1  UNL         0.0627
     60 H         -10.4365    5.1257   61.0125 H       1  UNL         0.0639
     61 H          -9.0861    3.2861   59.9517 H       1  UNL         0.0840
     62 H         -14.5577    1.7160   61.3322 H       1  UNL         0.0280
     63 H         -14.3550    2.9925   62.5357 H       1  UNL         0.0280
     64 H         -13.7751    1.3614   62.8860 H       1  UNL         0.0280
     65 H         -15.0648   -0.0865   57.9851 H       1  UNL         0.0401
     66 H         -15.0686   -1.9175   56.4578 H       1  UNL         0.0275
     67 H         -14.0117   -2.3741   57.7806 H       1  UNL         0.0275
     68 H         -13.0851   -3.0088   55.5261 H       1  UNL         0.0273
     69 H         -12.0080   -1.9715   56.4228 H       1  UNL         0.0273
     70 H         -11.4535   -2.2387   53.6774 H       1  UNL         0.0474
     71 H         -10.7367   -0.9450   54.6519 H       1  UNL         0.0474
     72 H         -12.3974   -1.6577   51.3944 H       1  UNL         0.0468
     73 H         -12.4345    0.0359   50.8875 H       1  UNL         0.0468
     74 H         -14.6889   -0.8404   51.6584 H       1  UNL         0.0283
     75 H         -14.1548    0.5707   52.5569 H       1  UNL         0.0283
     76 H         -14.0559   -2.3519   53.4513 H       1  UNL         0.0273
     77 H         -15.0477   -1.0861   54.1485 H       1  UNL         0.0273
     78 H         -11.5552    2.3064   52.7022 H       1  UNL         0.0644
     79 H          -9.6804    3.8299   52.2118 H       1  UNL         0.0643
     80 H          -7.0447    0.4457   51.7742 H       1  UNL         0.0659
     81 H          -7.4814    4.1147   51.6347 H       1  UNL         0.1528
     82 H          -5.0804    4.1370   53.0347 H       1  UNL         0.0643
     83 H          -2.7228    3.7319   52.5250 H       1  UNL         0.0630
     84 H          -3.8851    1.1703   49.2346 H       1  UNL         0.0630
     85 H          -6.2490    1.6196   49.7328 H       1  UNL         0.0643
     86 H          -0.9037    2.9155   52.4081 H       1  UNL         0.0637
     87 H           2.1263    1.4386   49.7114 H       1  UNL         0.0630
     88 H           0.3777    0.8732   48.0618 H       1  UNL         0.0623
     89 H          -1.9973    1.3183   48.5454 H       1  UNL         0.0629
     90 H           0.5262    2.5473   53.6028 H       1  UNL         0.1889
     91 H           3.7217    2.4133   52.5387 H       1  UNL         0.1258
     92 H           3.3221    1.9169   51.0261 H       1  UNL         0.1258
     93 H         -13.0078    1.2042   54.4332 H       1  UNL         0.0273
     94 H         -12.0389    0.6873   55.7908 H       1  UNL         0.0273
     95 H         -15.0987    0.6076   55.6664 H       1  UNL         0.0275
     96 H         -14.1396    1.7834   56.5267 H       1  UNL         0.0275
     97 H         -15.2965   -0.4134   59.8725 H       1  UNL         0.0433
     98 H         -14.4408   -1.0692   61.2762 H       1  UNL         0.0433
     99 H         -14.4265   -1.9647   59.7369 H       1  UNL         0.0433
    100 H          -9.1007   -0.4237   63.5624 H       1  UNL         0.0280
    101 H         -10.8675   -0.4131   63.5439 H       1  UNL         0.0280
    102 H          -9.9553    0.8278   62.6547 H       1  UNL         0.0280
@<TRIPOS>BOND
     1     1     2   ar
     2     1     6   ar
     3     1    54    1
     4     2     3   ar
     5     2    55    1
     6     3     4   ar
     7     3    53    1
     8     4     5   ar
     9     4     7    1
    10     5     6   ar
    11     5    56    1
    12     6    57    1
    13     7     8    1
    14     7    15    1
    15     7    58    1
    16     8     9   ar
    17     8    13   ar
    18     9    10   ar
    19     9    14    1
    20    10    11   ar
    21    10    59    1
    22    11    12   ar
    23    11    60    1
    24    12    13   ar
    25    12    61    1
    26    14    62    1
    27    14    63    1
    28    14    64    1
    29    15    16   am
    30    15    52    1
    31    16    17    2
    32    16    18    1
    33    18    19    1
    34    18    51    1
    35    18    65    1
    36    19    20    1
    37    19    66    1
    38    19    67    1
    39    20    21    1
    40    20    68    1
    41    20    69    1
    42    21    22    1
    43    21    26    1
    44    21    50    1
    45    22    23    1
    46    22    70    1
    47    22    71    1
    48    23    24    1
    49    23    27    1
    50    24    25    1
    51    24    72    1
    52    24    73    1
    53    25    26    1
    54    25    74    1
    55    25    75    1
    56    26    76    1
    57    26    77    1
    58    27    28   ar
    59    27    32   ar
    60    28    29   ar
    61    28    78    1
    62    29    30   ar
    63    29    79    1
    64    30    31   ar
    65    30    34    1
    66    31    32   ar
    67    31    80    1
    68    32    33    1
    69    34    35    1
    70    34    81    1
    71    35    36   ar
    72    35    40   ar
    73    36    37   ar
    74    36    82    1
    75    37    38   ar
    76    37    83    1
    77    38    39   ar
    78    38    41    1
    79    39    40   ar
    80    39    84    1
    81    40    85    1
    82    41    42   ar
    83    41    46   ar
    84    42    43   ar
    85    42    86    1
    86    43    44   ar
    87    43    47    1
    88    44    45   ar
    89    44    87    1
    90    45    46   ar
    91    45    88    1
    92    46    89    1
    93    47    48    1
    94    47    49    1
    95    48    90    1
    96    49    91    1
    97    49    92    1
    98    50    51    1
    99    50    93    1
   100    50    94    1
   101    51    95    1
   102    51    96    1
   103    52    97    1
   104    52    98    1
   105    52    99    1
   106    53   100    1
   107    53   101    1
   108    53   102    1
@<TRIPOS>SUBSTRUCTURE
     1 UNL         1 TEMP              0 ****  ****    0 ROOT


##########                                Name:    ZINC000552360217
##########                DOCK_Rotatable_Bonds:                  13
##########                         Heavy_Atoms:                  27
##########                    Molecular_Weight:             401.484
##########                DOCK_Rotatable_Bonds:                  13
##########                       Formal_Charge:          -0.0100002
##########                     HBond_Acceptors:                  10
##########                        HBond_Donors:                   3
##########                         Heavy_Atoms:                  27
##########                          Grid_Score:          -45.385670
##########                     Grid_vdw_energy:          -44.504845
##########                      Grid_es_energy:           -0.880826
##########           Internal_energy_repulsive:           18.650099

@<TRIPOS>MOLECULE
ZINC000552360217
 54 54 1 0 0
SMALL
USER_CHARGES


@<TRIPOS>ATOM
      1 C1         -3.7396    2.7236   52.7038 C.3     1  ZINC000552360217    0.0800
      2 N2         -3.5592    2.6891   51.2503 N.am    1  ZINC000552360217   -1.0000
      3 C3         -2.2101    2.6587   50.6802 C.3     1  ZINC000552360217    0.0900
      4 S4         -4.8803    2.6842   50.2519 S.o2    1  ZINC000552360217    2.7000
      5 O5         -5.6745    3.7997   50.6318 O.2     1  ZINC000552360217   -0.9500
      6 O6         -4.3860    2.4951   48.9332 O.2     1  ZINC000552360217   -0.9500
      7 C7         -5.8227    1.2471   50.6409 C.ar    1  ZINC000552360217   -0.6900
      8 C8         -5.4955    0.0312   50.0679 C.ar    1  ZINC000552360217    0.0100
      9 C9         -6.2302   -1.1023   50.3684 C.ar    1  ZINC000552360217   -0.1400
     10 C10        -7.2947   -1.0264   51.2423 C.ar    1  ZINC000552360217   -0.0300
     11 C11        -7.6302    0.1974   51.8239 C.ar    1  ZINC000552360217   -0.1600
     12 C12        -8.7697    0.2861   52.7617 C.2     1  ZINC000552360217    0.5600
     13 O13        -8.9925    1.3257   53.3509 O.2     1  ZINC000552360217   -0.5300
     14 N14        -9.5614   -0.7858   52.9635 N.am    1  ZINC000552360217   -0.7100
     15 C15       -10.6916   -0.6974   53.8915 C.3     1  ZINC000552360217    0.1000
     16 C16       -11.5913   -1.8914   53.7024 C.2     1  ZINC000552360217    0.5100
     17 O17       -11.1998   -2.8525   53.0748 O.2     1  ZINC000552360217   -0.5400
     18 N18       -12.8314   -1.8912   54.2305 N.am    1  ZINC000552360217   -0.7200
     19 C19       -13.7055   -3.0526   54.0482 C.3     1  ZINC000552360217    0.1400
     20 C20       -13.7489   -3.8665   55.3430 C.3     1  ZINC000552360217    0.1000
     21 C21       -14.7775   -3.2542   56.2959 C.3     1  ZINC000552360217   -0.1800
     22 C22       -14.1440   -5.3100   55.0251 C.3     1  ZINC000552360217   -0.1800
     23 O23       -12.4597   -3.8501   55.9594 O.3     1  ZINC000552360217   -0.3700
     24 C24       -12.3202   -4.7749   57.0398 C.3     1  ZINC000552360217    0.0600
     25 C25       -10.9500   -4.5908   57.6950 C.3     1  ZINC000552360217    0.0800
     26 O26       -10.8370   -3.2572   58.1959 O.3     1  ZINC000552360217   -0.5700
     27 C27        -6.8819    1.3358   51.5207 C.ar    1  ZINC000552360217    0.0400
     28 H28        -3.7709    3.7595   53.0415 H       1  ZINC000552360217    0.0600
     29 H29        -4.6742    2.2277   52.9659 H       1  ZINC000552360217    0.0900
     30 H30        -2.9079    2.2094   53.1855 H       1  ZINC000552360217    0.0800
     31 H31        -1.4751    2.6669   51.4852 H       1  ZINC000552360217    0.0800
     32 H32        -2.0872    1.7536   50.0854 H       1  ZINC000552360217    0.0700
     33 H33        -2.0639    3.5330   50.0459 H       1  ZINC000552360217    0.0600
     34 H34        -4.6631   -0.0336   49.3827 H       1  ZINC000552360217    0.1500
     35 H35        -5.9697   -2.0484   49.9173 H       1  ZINC000552360217    0.1400
     36 H36        -7.8675   -1.9117   51.4757 H       1  ZINC000552360217    0.1400
     37 H37        -9.3829   -1.6158   52.4943 H       1  ZINC000552360217    0.4100
     38 H38       -10.3200   -0.6812   54.9161 H       1  ZINC000552360217    0.1000
     39 H39       -11.2532    0.2157   53.6941 H       1  ZINC000552360217    0.1000
     40 H40       -13.1450   -1.1220   54.7314 H       1  ZINC000552360217    0.4100
     41 H41       -14.7110   -2.7147   53.7975 H       1  ZINC000552360217    0.0800
     42 H42       -13.3193   -3.6747   53.2407 H       1  ZINC000552360217    0.0900
     43 H43       -15.7608   -3.2667   55.8258 H       1  ZINC000552360217    0.0700
     44 H44       -14.8084   -3.8340   57.2184 H       1  ZINC000552360217    0.0700
     45 H45       -14.4961   -2.2258   56.5224 H       1  ZINC000552360217    0.0700
     46 H46       -13.4112   -5.7462   54.3463 H       1  ZINC000552360217    0.0600
     47 H47       -14.1749   -5.8898   55.9476 H       1  ZINC000552360217    0.0700
     48 H48       -15.1273   -5.3224   54.5550 H       1  ZINC000552360217    0.0700
     49 H49       -13.1027   -4.5936   57.7766 H       1  ZINC000552360217    0.0600
     50 H50       -12.4075   -5.7930   56.6601 H       1  ZINC000552360217    0.0700
     51 H51       -10.8425   -5.2981   58.5174 H       1  ZINC000552360217    0.0600
     52 H52       -10.1676   -4.7694   56.9575 H       1  ZINC000552360217    0.0500
     53 H53       -10.0072   -3.0804   58.6601 H       1  ZINC000552360217    0.3800
     54 H54        -7.1364    2.2855   51.9674 H       1  ZINC000552360217    0.1500
@<TRIPOS>BOND
     1     1     2    1
     2     1    28    1
     3     1    29    1
     4     1    30    1
     5     2     3    1
     6     2     4   am
     7     3    31    1
     8     3    32    1
     9     3    33    1
    10     4     5    2
    11     4     6    2
    12     4     7    1
    13     7    27   ar
    14     7     8   ar
    15     8     9   ar
    16     8    34    1
    17     9    10   ar
    18     9    35    1
    19    10    11   ar
    20    10    36    1
    21    11    12    1
    22    11    27   ar
    23    12    13    2
    24    12    14   am
    25    14    15    1
    26    14    37    1
    27    15    16    1
    28    15    38    1
    29    15    39    1
    30    16    17    2
    31    16    18   am
    32    18    19    1
    33    18    40    1
    34    19    20    1
    35    19    41    1
    36    19    42    1
    37    20    21    1
    38    20    22    1
    39    20    23    1
    40    21    43    1
    41    21    44    1
    42    21    45    1
    43    22    46    1
    44    22    47    1
    45    22    48    1
    46    23    24    1
    47    24    25    1
    48    24    49    1
    49    24    50    1
    50    25    26    1
    51    25    51    1
    52    25    52    1
    53    26    53    1
    54    27    54    1
@<TRIPOS>SUBSTRUCTURE
     1 ZINC000552360217        1 TEMP              0 ****  ****    0 ROOT


##########                                Name:    ZINC001340305486
##########                DOCK_Rotatable_Bonds:                   8
##########                         Heavy_Atoms:                  27
##########                    Molecular_Weight:             378.431
##########                DOCK_Rotatable_Bonds:                   8
##########                       Formal_Charge:          0.00999955
##########                     HBond_Acceptors:                  10
##########                        HBond_Donors:                   2
##########                         Heavy_Atoms:                  27
##########                          Grid_Score:          -44.417587
##########                     Grid_vdw_energy:          -42.714565
##########                      Grid_es_energy:           -1.703021
##########           Internal_energy_repulsive:            9.576076

@<TRIPOS>MOLECULE
ZINC001340305486
 53 55 1 0 0
SMALL
USER_CHARGES


@<TRIPOS>ATOM
      1 C1         -9.2305   -1.9579   59.6972 C.3     1  ZINC001340305486    0.0900
      2 N2        -10.4210   -2.1631   58.8686 N.am    1  ZINC001340305486   -0.7300
      3 C3        -10.6550   -3.3681   58.3118 C.2     1  ZINC001340305486    0.5200
      4 O4         -9.8792   -4.2820   58.4956 O.2     1  ZINC001340305486   -0.5100
      5 C5        -11.8807   -3.5798   57.4609 C.3     1  ZINC001340305486    0.0600
      6 H6        -11.8567   -4.5809   57.0307 H       1  ZINC001340305486    0.0900
      7 C7        -11.9086   -2.5394   56.3355 C.3     1  ZINC001340305486    0.0900
      8 N8        -13.1994   -2.6458   55.6370 N.am    1  ZINC001340305486   -0.5800
      9 C9        -13.2552   -2.7498   54.2944 C.2     1  ZINC001340305486    0.5100
     10 O10       -14.3296   -2.8359   53.7367 O.2     1  ZINC001340305486   -0.5200
     11 C11       -11.9942   -2.7590   53.4924 C.2     1  ZINC001340305486    0.5200
     12 O12       -11.5391   -3.8093   53.0893 O.2     1  ZINC001340305486   -0.5000
     13 N13       -11.3623   -1.6009   53.2169 N.am    1  ZINC001340305486   -0.6900
     14 C14       -10.1252   -1.6101   52.4321 C.3     1  ZINC001340305486    0.1200
     15 C15        -9.2558   -0.4179   52.8367 C.3     1  ZINC001340305486   -0.0400
     16 C16        -8.0132   -0.3904   51.9845 C.2     1  ZINC001340305486    0.1700
     17 N17        -7.4356   -1.4184   51.4210 N.2     1  ZINC001340305486   -0.2800
     18 N18        -6.4007   -1.0277   50.7623 N.2     1  ZINC001340305486   -0.2900
     19 C19        -6.2763    0.2642   50.8728 C.2     1  ZINC001340305486    0.1900
     20 C20        -5.2211    1.1345   50.2408 C.3     1  ZINC001340305486   -0.0400
     21 C21        -4.6695    2.0985   51.2955 C.3     1  ZINC001340305486   -0.1200
     22 C22        -5.5190    3.3655   51.3242 C.3     1  ZINC001340305486   -0.1300
     23 C23        -6.9787    3.0384   51.0127 C.3     1  ZINC001340305486   -0.1400
     24 C24        -7.5323    2.0836   52.0741 C.3     1  ZINC001340305486    0.1000
     25 N25        -7.2901    0.7027   51.6549 N.pl3   1  ZINC001340305486   -0.4600
     26 C26       -14.4274   -2.6346   56.4476 C.3     1  ZINC001340305486    0.0200
     27 C27       -14.2768   -3.6703   57.5677 C.3     1  ZINC001340305486    0.0500
     28 O28       -13.0524   -3.4343   58.2669 O.3     1  ZINC001340305486   -0.3500
     29 H29        -9.2573   -2.6399   60.5470 H       1  ZINC001340305486    0.0600
     30 H30        -8.3370   -2.1518   59.1038 H       1  ZINC001340305486    0.0600
     31 H31        -9.2114   -0.9293   60.0574 H       1  ZINC001340305486    0.0800
     32 H32       -11.0409   -1.4320   58.7206 H       1  ZINC001340305486    0.4000
     33 H33       -11.8003   -1.5399   56.7567 H       1  ZINC001340305486    0.0900
     34 H34       -11.0955   -2.7335   55.6359 H       1  ZINC001340305486    0.1100
     35 H35       -11.7267   -0.7613   53.5380 H       1  ZINC001340305486    0.4200
     36 H36        -9.5823   -2.5364   52.6207 H       1  ZINC001340305486    0.0900
     37 H37       -10.3671   -1.5402   51.3716 H       1  ZINC001340305486    0.0800
     38 H38        -9.8160    0.5059   52.6922 H       1  ZINC001340305486    0.0900
     39 H39        -8.9750   -0.5123   53.8857 H       1  ZINC001340305486    0.1100
     40 H40        -4.4133    0.5097   49.8600 H       1  ZINC001340305486    0.1000
     41 H41        -5.6607    1.7035   49.4214 H       1  ZINC001340305486    0.0900
     42 H42        -4.6977    1.6202   52.2745 H       1  ZINC001340305486    0.0600
     43 H43        -3.6400    2.3572   51.0478 H       1  ZINC001340305486    0.0800
     44 H44        -5.4551    3.8191   52.3133 H       1  ZINC001340305486    0.0700
     45 H45        -5.1416    4.0685   50.5816 H       1  ZINC001340305486    0.0800
     46 H46        -7.5640    3.9580   51.0116 H       1  ZINC001340305486    0.0900
     47 H47        -7.0434    2.5672   50.0320 H       1  ZINC001340305486    0.0800
     48 H48        -7.0357    2.2708   53.0262 H       1  ZINC001340305486    0.0900
     49 H49        -8.6046    2.2452   52.1849 H       1  ZINC001340305486    0.1000
     50 H50       -14.5727   -1.6446   56.8801 H       1  ZINC001340305486    0.0800
     51 H51       -15.2823   -2.8917   55.8223 H       1  ZINC001340305486    0.1700
     52 H52       -15.1141   -3.5824   58.2599 H       1  ZINC001340305486    0.1200
     53 H53       -14.2624   -4.6719   57.1378 H       1  ZINC001340305486    0.0600
@<TRIPOS>BOND
     1     1     2    1
     2     1    29    1
     3     1    30    1
     4     1    31    1
     5     2     3   am
     6     2    32    1
     7     3     4    2
     8     3     5    1
     9     5     6    1
    10     5    28    1
    11     5     7    1
    12     7     8    1
    13     7    33    1
    14     7    34    1
    15     8     9   am
    16     8    26    1
    17     9    10    2
    18     9    11    1
    19    11    12    2
    20    11    13   am
    21    13    14    1
    22    13    35    1
    23    14    15    1
    24    14    36    1
    25    14    37    1
    26    15    16    1
    27    15    38    1
    28    15    39    1
    29    16    25    1
    30    16    17    2
    31    17    18    1
    32    18    19    2
    33    19    25    1
    34    19    20    1
    35    20    21    1
    36    20    40    1
    37    20    41    1
    38    21    22    1
    39    21    42    1
    40    21    43    1
    41    22    23    1
    42    22    44    1
    43    22    45    1
    44    23    24    1
    45    23    46    1
    46    23    47    1
    47    24    25    1
    48    24    48    1
    49    24    49    1
    50    26    27    1
    51    26    50    1
    52    26    51    1
    53    27    28    1
    54    27    52    1
    55    27    53    1
@<TRIPOS>SUBSTRUCTURE
     1 ZINC001340305486        1 TEMP              0 ****  ****    0 ROOT


##########                                Name:    ZINC000062291520
##########                DOCK_Rotatable_Bonds:                  10
##########                         Heavy_Atoms:                  29
##########                    Molecular_Weight:             398.502
##########                DOCK_Rotatable_Bonds:                  10
##########                       Formal_Charge:          -0.0100006
##########                     HBond_Acceptors:                   6
##########                        HBond_Donors:                   1
##########                         Heavy_Atoms:                  29
##########                          Grid_Score:          -43.878223
##########                     Grid_vdw_energy:          -43.177059
##########                      Grid_es_energy:           -0.701163
##########           Internal_energy_repulsive:           51.300072

@<TRIPOS>MOLECULE
ZINC000062291520
 59 61 1 0 0
SMALL
USER_CHARGES


@<TRIPOS>ATOM
      1 C1         -6.5399    4.0320   52.4511 C.3     1  ZINC000062291520    0.0300
      2 O2         -5.2737    4.3615   51.8764 O.3     1  ZINC000062291520   -0.3100
      3 C3         -4.6283    3.3752   51.1980 C.ar    1  ZINC000062291520    0.1000
      4 C4         -3.3812    3.6147   50.6447 C.ar    1  ZINC000062291520   -0.1700
      5 C5         -2.7289    2.6124   49.9503 C.ar    1  ZINC000062291520   -0.1200
      6 C6         -3.3158    1.3688   49.8115 C.ar    1  ZINC000062291520   -0.1200
      7 C7         -4.5578    1.1213   50.3668 C.ar    1  ZINC000062291520   -0.1700
      8 C8         -5.2167    2.1210   51.0636 C.ar    1  ZINC000062291520    0.1000
      9 O9         -6.4382    1.8790   51.6104 O.3     1  ZINC000062291520   -0.3100
     10 C10        -6.8862    0.5222   51.6231 C.3     1  ZINC000062291520    0.0700
     11 C11        -8.1810    0.4201   52.4317 C.3     1  ZINC000062291520   -0.1400
     12 C12        -8.7667   -0.9591   52.2701 C.2     1  ZINC000062291520    0.5200
     13 O13        -8.0474   -1.8944   51.9898 O.2     1  ZINC000062291520   -0.5400
     14 N14       -10.0900   -1.1529   52.4371 N.am    1  ZINC000062291520   -0.7200
     15 C15       -10.6591   -2.4939   52.2818 C.3     1  ZINC000062291520    0.1600
     16 C16       -11.7652   -2.6896   53.2865 C.ar    1  ZINC000062291520   -0.1100
     17 C17       -13.0838   -2.5393   52.9007 C.ar    1  ZINC000062291520   -0.1000
     18 C18       -14.0985   -2.7194   53.8224 C.ar    1  ZINC000062291520   -0.1200
     19 C19       -13.7943   -3.0495   55.1295 C.ar    1  ZINC000062291520   -0.0900
     20 C20       -12.4751   -3.1994   55.5156 C.ar    1  ZINC000062291520   -0.0800
     21 C21       -12.1434   -3.5590   56.9409 C.3     1  ZINC000062291520    0.0900
     22 N22       -11.2883   -2.5160   57.5229 N.3     1  ZINC000062291520   -0.5300
     23 C23       -12.0696   -1.3126   57.8439 C.3     1  ZINC000062291520    0.0100
     24 C24       -11.1319   -0.2330   58.3907 C.3     1  ZINC000062291520    0.0600
     25 O25       -10.4352   -0.7459   59.5295 O.3     1  ZINC000062291520   -0.3800
     26 C26        -9.6635   -1.9177   59.2526 C.3     1  ZINC000062291520    0.0900
     27 H27        -8.9018   -1.6844   58.5086 H       1  ZINC000062291520    0.0700
     28 C28        -8.9903   -2.4017   60.5384 C.3     1  ZINC000062291520   -0.1500
     29 C29       -10.5862   -3.0145   58.7144 C.3     1  ZINC000062291520    0.0200
     30 C30       -11.4610   -3.0251   54.5928 C.ar    1  ZINC000062291520   -0.0900
     31 H31        -7.2263    3.7206   51.6637 H       1  ZINC000062291520    0.0500
     32 H32        -6.4140    3.2188   53.1660 H       1  ZINC000062291520    0.0600
     33 H33        -6.9453    4.9053   52.9621 H       1  ZINC000062291520    0.1000
     34 H34        -2.9204    4.5855   50.7516 H       1  ZINC000062291520    0.1400
     35 H35        -1.7584    2.8016   49.5158 H       1  ZINC000062291520    0.1300
     36 H36        -2.8032    0.5886   49.2686 H       1  ZINC000062291520    0.1300
     37 H37        -5.0141    0.1485   50.2576 H       1  ZINC000062291520    0.1400
     38 H38        -6.1226   -0.1082   52.0787 H       1  ZINC000062291520    0.0700
     39 H39        -7.0690    0.1903   50.6010 H       1  ZINC000062291520    0.0700
     40 H40        -8.8937    1.1620   52.0715 H       1  ZINC000062291520    0.1100
     41 H41        -7.9672    0.6029   53.4847 H       1  ZINC000062291520    0.1100
     42 H42       -10.6655   -0.4047   52.6601 H       1  ZINC000062291520    0.4000
     43 H43       -11.0599   -2.6041   51.2741 H       1  ZINC000062291520    0.0800
     44 H44        -9.8818   -3.2400   52.4472 H       1  ZINC000062291520    0.0800
     45 H45       -13.3215   -2.2818   51.8792 H       1  ZINC000062291520    0.1200
     46 H46       -15.1289   -2.6023   53.5208 H       1  ZINC000062291520    0.1300
     47 H47       -14.5870   -3.1901   55.8495 H       1  ZINC000062291520    0.1200
     48 H48       -13.0640   -3.6387   57.5191 H       1  ZINC000062291520    0.0500
     49 H49       -11.6175   -4.5136   56.9617 H       1  ZINC000062291520    0.0900
     50 H50       -12.5602   -0.9460   56.9422 H       1  ZINC000062291520    0.0900
     51 H51       -12.8217   -1.5564   58.5941 H       1  ZINC000062291520    0.0400
     52 H52       -10.4134    0.0491   57.6210 H       1  ZINC000062291520    0.0600
     53 H53       -11.7144    0.6406   58.6835 H       1  ZINC000062291520    0.1000
     54 H54        -9.7525   -2.6362   61.2815 H       1  ZINC000062291520    0.0600
     55 H55        -8.4023   -3.2947   60.3267 H       1  ZINC000062291520    0.0700
     56 H56        -8.3365   -1.6189   60.9231 H       1  ZINC000062291520    0.0700
     57 H57       -11.3142   -3.2853   59.4792 H       1  ZINC000062291520    0.0400
     58 H58        -9.9941   -3.8900   58.4483 H       1  ZINC000062291520    0.0900
     59 H59       -10.4308   -3.1469   54.8932 H       1  ZINC000062291520    0.1200
@<TRIPOS>BOND
     1     1     2    1
     2     1    31    1
     3     1    32    1
     4     1    33    1
     5     2     3    1
     6     3     8   ar
     7     3     4   ar
     8     4     5   ar
     9     4    34    1
    10     5     6   ar
    11     5    35    1
    12     6     7   ar
    13     6    36    1
    14     7     8   ar
    15     7    37    1
    16     8     9    1
    17     9    10    1
    18    10    11    1
    19    10    38    1
    20    10    39    1
    21    11    12    1
    22    11    40    1
    23    11    41    1
    24    12    13    2
    25    12    14   am
    26    14    15    1
    27    14    42    1
    28    15    16    1
    29    15    43    1
    30    15    44    1
    31    16    30   ar
    32    16    17   ar
    33    17    18   ar
    34    17    45    1
    35    18    19   ar
    36    18    46    1
    37    19    20   ar
    38    19    47    1
    39    20    21    1
    40    20    30   ar
    41    21    22    1
    42    21    48    1
    43    21    49    1
    44    22    29    1
    45    22    23    1
    46    23    24    1
    47    23    50    1
    48    23    51    1
    49    24    25    1
    50    24    52    1
    51    24    53    1
    52    25    26    1
    53    26    27    1
    54    26    28    1
    55    26    29    1
    56    28    54    1
    57    28    55    1
    58    28    56    1
    59    29    57    1
    60    29    58    1
    61    30    59    1
@<TRIPOS>SUBSTRUCTURE
     1 ZINC000062291520        1 TEMP              0 ****  ****    0 ROOT


##########                                Name:    ZINC001591898574
##########                DOCK_Rotatable_Bonds:                  10
##########                         Heavy_Atoms:                  26
##########                    Molecular_Weight:             383.434
##########                DOCK_Rotatable_Bonds:                  10
##########                       Formal_Charge:         5.96046e-08
##########                     HBond_Acceptors:                  13
##########                        HBond_Donors:                   3
##########                         Heavy_Atoms:                  26
##########                          Grid_Score:          -43.743370
##########                     Grid_vdw_energy:          -42.724430
##########                      Grid_es_energy:           -1.018939
##########           Internal_energy_repulsive:           11.198414

@<TRIPOS>MOLECULE
ZINC001591898574
 47 48 1 0 0
SMALL
USER_CHARGES


@<TRIPOS>ATOM
      1 C1         -8.9551    2.6456   54.6922 C.3     1  ZINC001591898574   -0.1100
      2 C2         -8.5305    1.6107   53.6823 C.ar    1  ZINC001591898574    0.2300
      3 C3         -7.3387    1.7530   52.9941 C.ar    1  ZINC001591898574   -0.2400
      4 C4         -6.9839    0.7698   52.0673 C.ar    1  ZINC001591898574    0.3000
      5 C5         -5.7156    0.8765   51.3042 C.2     1  ZINC001591898574    0.2100
      6 N6         -4.7446    1.7447   51.5079 N.2     1  ZINC001591898574   -0.2500
      7 N7         -3.8195    1.5121   50.6414 N.pl3   1  ZINC001591898574   -0.2200
      8 N8         -4.1731    0.5245   49.8953 N.2     1  ZINC001591898574   -0.0400
      9 N9         -5.3317    0.1050   50.2771 N.2     1  ZINC001591898574   -0.2500
     10 N10        -7.8002   -0.2641   51.8795 N.ar    1  ZINC001591898574   -0.5500
     11 C11        -8.9319   -0.3618   52.5594 C.ar    1  ZINC001591898574    0.5800
     12 N12        -9.7585   -1.4501   52.3401 N.pl3   1  ZINC001591898574   -0.7000
     13 C13       -10.9363   -1.6577   53.1863 C.3     1  ZINC001591898574    0.1400
     14 C14       -11.8527   -2.6977   52.5385 C.3     1  ZINC001591898574   -0.1500
     15 C15       -13.1142   -2.8655   53.3879 C.3     1  ZINC001591898574    0.1200
     16 N16       -12.7747   -3.5545   54.6354 N.am    1  ZINC001591898574   -0.7300
     17 C17       -13.7258   -3.7724   55.5652 C.2     1  ZINC001591898574    0.4900
     18 O18       -14.8630   -3.3994   55.3685 O.2     1  ZINC001591898574   -0.5300
     19 C19       -13.3762   -4.4796   56.8492 C.3     1  ZINC001591898574    0.1000
     20 N20       -12.3969   -3.6840   57.5938 N.am    1  ZINC001591898574   -0.9800
     21 C21       -12.8311   -2.5034   58.3447 C.3     1  ZINC001591898574    0.1000
     22 S22       -10.7991   -4.1194   57.5867 S.o2    1  ZINC001591898574    2.6100
     23 C23        -9.9852   -2.8703   58.6200 C.3     1  ZINC001591898574   -0.6600
     24 O24       -10.7785   -5.3874   58.2278 O.2     1  ZINC001591898574   -0.9500
     25 O25       -10.4035   -3.9783   56.2292 O.2     1  ZINC001591898574   -0.9600
     26 N26        -9.2911    0.5531   53.4481 N.ar    1  ZINC001591898574   -0.5600
     27 H27        -8.5645    2.3771   55.6738 H       1  ZINC001591898574    0.0900
     28 H28        -8.5643    3.6203   54.3999 H       1  ZINC001591898574    0.0900
     29 H29       -10.0435    2.6880   54.7335 H       1  ZINC001591898574    0.0900
     30 H30        -6.6978    2.6045   53.1690 H       1  ZINC001591898574    0.1600
     31 H31        -2.9871    2.0041   50.5636 H       1  ZINC001591898574    0.4800
     32 H32        -9.5580   -2.0753   51.6261 H       1  ZINC001591898574    0.4200
     33 H33       -10.6207   -2.0124   54.1675 H       1  ZINC001591898574    0.0700
     34 H34       -11.4752   -0.7167   53.2961 H       1  ZINC001591898574    0.0700
     35 H35       -12.1298   -2.3651   51.5382 H       1  ZINC001591898574    0.0800
     36 H36       -11.3298   -3.6518   52.4723 H       1  ZINC001591898574    0.0800
     37 H37       -13.5314   -1.8848   53.6165 H       1  ZINC001591898574    0.0700
     38 H38       -13.8481   -3.4531   52.8364 H       1  ZINC001591898574    0.0700
     39 H39       -11.8655   -3.8539   54.7923 H       1  ZINC001591898574    0.4000
     40 H40       -14.2759   -4.6049   57.4516 H       1  ZINC001591898574    0.1200
     41 H41       -12.9522   -5.4575   56.6217 H       1  ZINC001591898574    0.1300
     42 H42       -13.0946   -2.7958   59.3611 H       1  ZINC001591898574    0.0600
     43 H43       -12.0217   -1.7740   58.3747 H       1  ZINC001591898574    0.0700
     44 H44       -13.7001   -2.0618   57.8568 H       1  ZINC001591898574    0.0700
     45 H45       -10.4095   -2.8964   59.6237 H       1  ZINC001591898574    0.1300
     46 H46        -8.9170   -3.0814   58.6716 H       1  ZINC001591898574    0.1200
     47 H47       -10.1396   -1.8826   58.1858 H       1  ZINC001591898574    0.1300
@<TRIPOS>BOND
     1     1     2    1
     2     1    27    1
     3     1    28    1
     4     1    29    1
     5     2    26   ar
     6     2     3   ar
     7     3     4   ar
     8     3    30    1
     9     4     5    1
    10     4    10   ar
    11     5     9    1
    12     5     6    2
    13     6     7    1
    14     7     8    1
    15     7    31    1
    16     8     9    2
    17    10    11   ar
    18    11    12    1
    19    11    26   ar
    20    12    13    1
    21    12    32    1
    22    13    14    1
    23    13    33    1
    24    13    34    1
    25    14    15    1
    26    14    35    1
    27    14    36    1
    28    15    16    1
    29    15    37    1
    30    15    38    1
    31    16    17   am
    32    16    39    1
    33    17    18    2
    34    17    19    1
    35    19    20    1
    36    19    40    1
    37    19    41    1
    38    20    21    1
    39    20    22   am
    40    21    42    1
    41    21    43    1
    42    21    44    1
    43    22    23    1
    44    22    24    2
    45    22    25    2
    46    23    45    1
    47    23    46    1
    48    23    47    1
@<TRIPOS>SUBSTRUCTURE
     1 ZINC001591898574        1 TEMP              0 ****  ****    0 ROOT


##########                                Name:    ZINC000467185792
##########                DOCK_Rotatable_Bonds:                   9
##########                         Heavy_Atoms:                  29
##########                    Molecular_Weight:             412.513
##########                DOCK_Rotatable_Bonds:                   9
##########                       Formal_Charge:                0.04
##########                     HBond_Acceptors:                   8
##########                        HBond_Donors:                   2
##########                         Heavy_Atoms:                  29
##########                          Grid_Score:          -43.597504
##########                     Grid_vdw_energy:          -39.779449
##########                      Grid_es_energy:           -3.818053
##########           Internal_energy_repulsive:           27.239424

@<TRIPOS>MOLECULE
ZINC000467185792
 53 55 1 0 0
SMALL
USER_CHARGES


@<TRIPOS>ATOM
      1 C1        -14.4347   -4.1337   57.6433 C.3     1  ZINC000467185792   -0.1500
      2 C2        -13.4763   -4.5302   56.5184 C.3     1  ZINC000467185792   -0.1200
      3 C3        -14.1903   -4.4015   55.1713 C.3     1  ZINC000467185792    0.0600
      4 O4        -13.2292   -4.4611   54.1153 O.3     1  ZINC000467185792   -0.3100
      5 C5        -12.4300   -3.3749   53.9464 C.ar    1  ZINC000467185792    0.1400
      6 C6        -11.3274   -3.4504   53.1064 C.ar    1  ZINC000467185792   -0.2100
      7 C7        -10.5145   -2.3497   52.9324 C.ar    1  ZINC000467185792   -0.0400
      8 C8        -10.8013   -1.1607   53.6011 C.ar    1  ZINC000467185792   -0.0600
      9 C9         -9.9294    0.0251   53.4158 C.2     1  ZINC000467185792    0.1400
     10 C10       -10.3626    1.2781   53.6423 C.2     1  ZINC000467185792   -0.3000
     11 S11        -9.0351    2.3883   53.3101 S.3     1  ZINC000467185792    0.2000
     12 C12        -8.0009    1.0266   52.8885 C.2     1  ZINC000467185792    0.2800
     13 N13        -6.6766    1.1201   52.4829 N.am    1  ZINC000467185792   -0.6100
     14 C14        -6.3802    1.5735   51.2488 C.2     1  ZINC000467185792    0.5900
     15 O15        -7.2729    1.9007   50.4906 O.2     1  ZINC000467185792   -0.4900
     16 C16        -4.9744    1.6728   50.8183 C.2     1  ZINC000467185792   -0.2400
     17 C17        -4.2160    2.8122   51.0795 C.2     1  ZINC000467185792    0.0800
     18 C18        -4.8084    3.9869   51.8144 C.3     1  ZINC000467185792   -0.1200
     19 C19        -4.5750    3.8189   53.3172 C.3     1  ZINC000467185792   -0.1400
     20 C20        -2.8870    2.8330   50.6393 C.2     1  ZINC000467185792    0.0600
     21 C21        -2.0322    4.0460   50.9020 C.3     1  ZINC000467185792   -0.0600
     22 C22        -0.6403    3.8280   50.3052 C.3     1  ZINC000467185792   -0.1500
     23 N23        -2.3816    1.8109   50.0038 N.2     1  ZINC000467185792   -0.1800
     24 N24        -3.0512    0.7475   49.7471 N.am    1  ZINC000467185792   -0.4300
     25 C25        -4.3362    0.6061   50.1245 C.2     1  ZINC000467185792    0.5000
     26 O26        -4.9475   -0.4164   49.8663 O.2     1  ZINC000467185792   -0.5300
     27 N27        -8.6682   -0.0777   53.0210 N.2     1  ZINC000467185792   -0.5000
     28 C28       -11.9092   -1.0882   54.4439 C.ar    1  ZINC000467185792   -0.0600
     29 C29       -12.7211   -2.1908   54.6095 C.ar    1  ZINC000467185792   -0.1500
     30 H30       -15.3040   -4.7911   57.6285 H       1  ZINC000467185792    0.0600
     31 H31       -13.9262   -4.2255   58.6030 H       1  ZINC000467185792    0.0700
     32 H32       -14.7567   -3.1023   57.4997 H       1  ZINC000467185792    0.0600
     33 H33       -12.6070   -3.8728   56.5332 H       1  ZINC000467185792    0.0700
     34 H34       -13.1544   -5.5616   56.6620 H       1  ZINC000467185792    0.0700
     35 H35       -14.9044   -5.2173   55.0591 H       1  ZINC000467185792    0.0600
     36 H36       -14.7176   -3.4485   55.1291 H       1  ZINC000467185792    0.0600
     37 H37       -11.1056   -4.3720   52.5889 H       1  ZINC000467185792    0.1300
     38 H38        -9.6566   -2.4092   52.2790 H       1  ZINC000467185792    0.1300
     39 H39       -11.3532    1.5560   53.9707 H       1  ZINC000467185792    0.1800
     40 H40        -5.9645    0.8592   53.0877 H       1  ZINC000467185792    0.4400
     41 H41        -4.3325    4.9064   51.4734 H       1  ZINC000467185792    0.0900
     42 H42        -5.8792    4.0370   51.6164 H       1  ZINC000467185792    0.1300
     43 H43        -5.0510    2.8995   53.6582 H       1  ZINC000467185792    0.0600
     44 H44        -3.5043    3.7688   53.5152 H       1  ZINC000467185792    0.0600
     45 H45        -5.0036    4.6686   53.8487 H       1  ZINC000467185792    0.0700
     46 H46        -2.4918    4.9208   50.4420 H       1  ZINC000467185792    0.1000
     47 H47        -1.9459    4.2038   51.9770 H       1  ZINC000467185792    0.1000
     48 H48        -0.0221    4.7054   50.4952 H       1  ZINC000467185792    0.0600
     49 H49        -0.1808    2.9532   50.7652 H       1  ZINC000467185792    0.0600
     50 H50        -0.7266    3.6702   49.2302 H       1  ZINC000467185792    0.0600
     51 H51        -2.6179    0.0220   49.2707 H       1  ZINC000467185792    0.4500
     52 H52       -12.1337   -0.1685   54.9636 H       1  ZINC000467185792    0.1300
     53 H53       -13.5799   -2.1351   55.2621 H       1  ZINC000467185792    0.1400
@<TRIPOS>BOND
     1     1     2    1
     2     1    30    1
     3     1    31    1
     4     1    32    1
     5     2     3    1
     6     2    33    1
     7     2    34    1
     8     3     4    1
     9     3    35    1
    10     3    36    1
    11     4     5    1
    12     5    29   ar
    13     5     6   ar
    14     6     7   ar
    15     6    37    1
    16     7     8   ar
    17     7    38    1
    18     8     9    1
    19     8    28   ar
    20     9    27    1
    21     9    10    2
    22    10    11    1
    23    10    39    1
    24    11    12    1
    25    12    13    1
    26    12    27    2
    27    13    14   am
    28    13    40    1
    29    14    15    2
    30    14    16    1
    31    16    25    1
    32    16    17    2
    33    17    18    1
    34    17    20    1
    35    18    19    1
    36    18    41    1
    37    18    42    1
    38    19    43    1
    39    19    44    1
    40    19    45    1
    41    20    21    1
    42    20    23    2
    43    21    22    1
    44    21    46    1
    45    21    47    1
    46    22    48    1
    47    22    49    1
    48    22    50    1
    49    23    24    1
    50    24    25   am
    51    24    51    1
    52    25    26    2
    53    28    29   ar
    54    28    52    1
    55    29    53    1
@<TRIPOS>SUBSTRUCTURE
     1 ZINC000467185792        1 TEMP              0 ****  ****    0 ROOT


##########                                Name:    ZINC000671418508
##########                DOCK_Rotatable_Bonds:                   9
##########                         Heavy_Atoms:                  28
##########                    Molecular_Weight:             405.884
##########                DOCK_Rotatable_Bonds:                   9
##########                       Formal_Charge:         -1.3411e-07
##########                     HBond_Acceptors:                   9
##########                        HBond_Donors:                   2
##########                         Heavy_Atoms:                  28
##########                          Grid_Score:          -43.229294
##########                     Grid_vdw_energy:          -42.802368
##########                      Grid_es_energy:           -0.426927
##########           Internal_energy_repulsive:           22.981615

@<TRIPOS>MOLECULE
ZINC000671418508
 52 54 1 0 0
SMALL
USER_CHARGES


@<TRIPOS>ATOM
      1 C1         -5.3348    2.0759   49.7062 C.3     1  ZINC000671418508    0.1000
      2 N2         -6.1947    1.2631   50.5700 N.pl3   1  ZINC000671418508   -0.3700
      3 C3         -6.9023    1.7071   51.6298 C.2     1  ZINC000671418508    0.0800
      4 C4         -7.5623    0.6501   52.1572 C.2     1  ZINC000671418508   -0.2700
      5 C5         -8.4761    0.6834   53.3552 C.3     1  ZINC000671418508    0.2000
      6 N6         -9.4866   -0.3697   53.2279 N.am    1  ZINC000671418508   -0.6900
      7 C7        -10.6599   -0.1076   52.6186 C.2     1  ZINC000671418508    0.5100
      8 O8        -10.8798    1.0010   52.1767 O.2     1  ZINC000671418508   -0.5100
      9 C9        -11.6900   -1.1823   52.4871 C.2     1  ZINC000671418508    0.5100
     10 O10       -11.9454   -1.6479   51.3960 O.2     1  ZINC000671418508   -0.5200
     11 N11       -12.3354   -1.6345   53.5806 N.am    1  ZINC000671418508   -0.5800
     12 C12       -13.3482   -2.6958   53.4744 C.3     1  ZINC000671418508    0.0800
     13 C13       -13.0124   -3.7925   54.4905 C.3     1  ZINC000671418508    0.0400
     14 N14       -12.8774   -3.1941   55.8253 N.3     1  ZINC000671418508   -0.5200
     15 C15       -12.7258   -4.2315   56.8543 C.3     1  ZINC000671418508    0.1300
     16 H16       -12.2331   -5.1025   56.4224 H       1  ZINC000671418508    0.0600
     17 C17       -14.1053   -4.6342   57.3796 C.3     1  ZINC000671418508    0.0900
     18 O18       -14.4148   -5.9579   56.9392 O.3     1  ZINC000671418508   -0.5500
     19 C19       -11.8930   -3.6948   57.9898 C.ar    1  ZINC000671418508   -0.0800
     20 C20       -10.5683   -4.0706   58.1128 C.ar    1  ZINC000671418508   -0.0600
     21 C21        -9.8040   -3.5786   59.1541 C.ar    1  ZINC000671418508   -0.1200
     22 C22       -10.3648   -2.7099   60.0733 C.ar    1  ZINC000671418508   -0.0300
     23 Cl23       -9.4054   -2.0912   61.3810 Cl      1  ZINC000671418508   -0.0700
     24 C24       -11.6906   -2.3341   59.9497 C.ar    1  ZINC000671418508   -0.1200
     25 C25       -12.4523   -2.8223   58.9048 C.ar    1  ZINC000671418508   -0.1100
     26 C26       -11.7612   -2.2401   55.8711 C.3     1  ZINC000671418508    0.0400
     27 C27       -12.0413   -1.0841   54.9124 C.3     1  ZINC000671418508    0.1100
     28 C28        -7.2474   -0.4785   51.3935 C.2     1  ZINC000671418508    0.0700
     29 N29        -6.4324   -0.1111   50.4381 N.2     1  ZINC000671418508   -0.2900
     30 H30        -5.9229    2.4745   48.8795 H       1  ZINC000671418508    0.0800
     31 H31        -4.9145    2.8995   50.2834 H       1  ZINC000671418508    0.0900
     32 H32        -4.5272    1.4584   49.3129 H       1  ZINC000671418508    0.0900
     33 H33        -6.9354    2.7240   51.9925 H       1  ZINC000671418508    0.1800
     34 H34        -7.8930    0.5198   54.2615 H       1  ZINC000671418508    0.0800
     35 H35        -8.9682    1.6544   53.4100 H       1  ZINC000671418508    0.0800
     36 H36        -9.3114   -1.2555   53.5822 H       1  ZINC000671418508    0.4100
     37 H37       -14.3339   -2.2843   53.6920 H       1  ZINC000671418508    0.0800
     38 H38       -13.3368   -3.1134   52.4676 H       1  ZINC000671418508    0.1400
     39 H39       -13.8117   -4.5335   54.5033 H       1  ZINC000671418508    0.0900
     40 H40       -12.0749   -4.2730   54.2107 H       1  ZINC000671418508    0.0400
     41 H41       -14.1018   -4.6052   58.4692 H       1  ZINC000671418508    0.0500
     42 H42       -14.8553   -3.9403   57.0001 H       1  ZINC000671418508    0.0500
     43 H43       -15.3427   -6.0854   56.6985 H       1  ZINC000671418508    0.3800
     44 H44       -10.1306   -4.7489   57.3955 H       1  ZINC000671418508    0.1400
     45 H45        -8.7692   -3.8726   59.2503 H       1  ZINC000671418508    0.1300
     46 H46       -12.1291   -1.6564   60.6671 H       1  ZINC000671418508    0.1300
     47 H47       -13.4872   -2.5288   58.8078 H       1  ZINC000671418508    0.1300
     48 H48       -11.6529   -1.8554   56.8852 H       1  ZINC000671418508    0.0900
     49 H49       -10.8411   -2.7422   55.5720 H       1  ZINC000671418508    0.0400
     50 H50       -11.1678   -0.4344   54.8571 H       1  ZINC000671418508    0.1000
     51 H51       -12.9019   -0.5159   55.2654 H       1  ZINC000671418508    0.0800
     52 H52        -7.6170   -1.4794   51.5605 H       1  ZINC000671418508    0.1900
@<TRIPOS>BOND
     1     1     2    1
     2     1    30    1
     3     1    31    1
     4     1    32    1
     5     2    29    1
     6     2     3    1
     7     3     4    2
     8     3    33    1
     9     4     5    1
    10     4    28    1
    11     5     6    1
    12     5    34    1
    13     5    35    1
    14     6     7   am
    15     6    36    1
    16     7     8    2
    17     7     9    1
    18     9    10    2
    19     9    11   am
    20    11    27    1
    21    11    12    1
    22    12    13    1
    23    12    37    1
    24    12    38    1
    25    13    14    1
    26    13    39    1
    27    13    40    1
    28    14    15    1
    29    14    26    1
    30    15    16    1
    31    15    17    1
    32    15    19    1
    33    17    18    1
    34    17    41    1
    35    17    42    1
    36    18    43    1
    37    19    25   ar
    38    19    20   ar
    39    20    21   ar
    40    20    44    1
    41    21    22   ar
    42    21    45    1
    43    22    23    1
    44    22    24   ar
    45    24    25   ar
    46    24    46    1
    47    25    47    1
    48    26    27    1
    49    26    48    1
    50    26    49    1
    51    27    50    1
    52    27    51    1
    53    28    29    2
    54    28    52    1
@<TRIPOS>SUBSTRUCTURE
     1 ZINC000671418508        1 TEMP              0 ****  ****    0 ROOT


##########                                Name:     oleObject52.pdb
##########                DOCK_Rotatable_Bonds:                  10
##########                         Heavy_Atoms:                  38
##########                    Molecular_Weight:              533.07
##########                DOCK_Rotatable_Bonds:                  10
##########                       Formal_Charge:         0.000300027
##########                     HBond_Acceptors:                   8
##########                        HBond_Donors:                   0
##########                         Heavy_Atoms:                  38
##########                          Grid_Score:          -43.181190
##########                     Grid_vdw_energy:          -42.504089
##########                      Grid_es_energy:           -0.677102
##########           Internal_energy_repulsive:           33.656662

@<TRIPOS>MOLECULE
oleObject52.pdb
 71 74 1 0 0
SMALL
NO_CHARGES


@<TRIPOS>ATOM
      1 C         -10.0642   -4.2139   58.7906 C.ar    1  UNL        -0.0596
      2 C         -10.0615   -3.0889   59.6287 C.ar    1  UNL        -0.0314
      3 C         -10.7983   -1.9370   59.2795 C.ar    1  UNL         0.0800
      4 C         -11.5467   -1.9168   58.0796 C.ar    1  UNL         0.0089
      5 C         -11.5346   -3.0543   57.2439 C.ar    1  UNL        -0.0541
      6 C         -10.7996   -4.1957   57.5977 C.ar    1  UNL        -0.0617
      7 C         -12.3422   -0.6574   57.7037 C.3     1  UNL         0.0953
      8 C         -13.5501   -0.4275   58.6290 C.ar    1  UNL         0.0684
      9 C         -14.8173   -0.0418   58.1242 C.ar    1  UNL        -0.0272
     10 C         -15.8754    0.1370   59.0351 C.ar    1  UNL        -0.0559
     11 C         -15.6437   -0.0723   60.4021 C.ar    1  UNL        -0.0435
     12 C         -14.3594   -0.4568   60.8148 C.ar    1  UNL         0.0272
     13 N         -13.3411   -0.6303   59.9518 N.ar    1  UNL        -0.2587
     14 C         -15.0715    0.1678   56.6364 C.3     1  UNL        -0.0379
     15 N         -11.5016    0.5528   57.4768 N.am    1  UNL        -0.2917
     16 C         -10.5500    0.5679   56.4514 C.2     1  UNL         0.2180
     17 O         -10.5709   -0.2841   55.5787 O.2     1  UNL        -0.2772
     18 C          -9.7132    1.8609   56.2756 C.3     1  UNL         0.0385
     19 C         -10.5158    2.9813   55.5710 C.3     1  UNL        -0.0289
     20 C         -10.6891    2.7098   54.0610 C.3     1  UNL        -0.0010
     21 N          -9.3821    2.5323   53.3868 N.4     1  UNL        -0.3010
     22 C          -8.5671    1.4537   53.9878 C.3     1  UNL        -0.0010
     23 C          -8.3808    1.6260   55.5155 C.3     1  UNL        -0.0289
     24 C          -9.4703    2.3849   51.9170 C.3     1  UNL         0.0222
     25 C          -8.2213    2.8990   51.1715 C.3     1  UNL         0.0661
     26 O          -7.4120    1.7587   50.8328 O.3     1  UNL        -0.3432
     27 C          -6.0540    1.8299   50.5899 C.ar    1  UNL         0.0937
     28 C          -5.3492    3.0513   50.6312 C.ar    1  UNL        -0.0289
     29 C          -3.9676    3.0796   50.3781 C.ar    1  UNL        -0.0417
     30 C          -3.2776    1.8914   50.0820 C.ar    1  UNL         0.0537
     31 C          -3.9756    0.6727   50.0402 C.ar    1  UNL        -0.0230
     32 C          -5.3572    0.6413   50.2930 C.ar    1  UNL         0.0721
     33 CL         -6.1931   -0.8991   50.2312 Cl      1  UNL        -0.0814
     34 C          -1.8667    1.9228   49.8237 C.1     1  UNL         0.0992
     35 N          -0.7297    1.9589   49.6157 N.1     1  UNL        -0.1924
     36 C         -11.7000    1.6916   58.3997 C.3     1  UNL         0.0037
     37 O         -10.8044   -0.8114   60.0856 O.3     1  UNL        -0.3490
     38 C         -10.0805   -0.7114   61.3235 C.3     1  UNL         0.0422
     39 H          -9.4949   -5.0973   59.0648 H       1  UNL         0.0624
     40 H          -9.4826   -3.1245   60.5454 H       1  UNL         0.0651
     41 H         -12.0932   -3.0628   56.3143 H       1  UNL         0.0627
     42 H         -10.8003   -5.0651   56.9465 H       1  UNL         0.0623
     43 H         -12.7683   -0.8911   56.7218 H       1  UNL         0.0627
     44 H         -16.8632    0.4283   58.6895 H       1  UNL         0.0627
     45 H         -16.4426    0.0557   61.1264 H       1  UNL         0.0639
     46 H         -14.1389   -0.6340   61.8666 H       1  UNL         0.0840
     47 H         -14.3304    0.8456   56.1998 H       1  UNL         0.0280
     48 H         -16.0614    0.6028   56.4513 H       1  UNL         0.0280
     49 H         -15.0217   -0.7843   56.0933 H       1  UNL         0.0280
     50 H          -9.4352    2.2175   57.2729 H       1  UNL         0.0402
     51 H          -9.9843    3.9335   55.6965 H       1  UNL         0.0288
     52 H         -11.4969    3.1108   56.0422 H       1  UNL         0.0288
     53 H         -11.2352    3.5563   53.6288 H       1  UNL         0.0431
     54 H         -11.3021    1.8093   53.9223 H       1  UNL         0.0431
     55 H          -7.5752    1.4334   53.5183 H       1  UNL         0.0431
     56 H          -9.0394    0.4842   53.7859 H       1  UNL         0.0431
     57 H          -7.7249    2.4898   55.6846 H       1  UNL         0.0288
     58 H          -7.8584    0.7536   55.9287 H       1  UNL         0.0288
     59 H         -10.3556    2.9143   51.5408 H       1  UNL         0.0455
     60 H          -9.5918    1.3224   51.6686 H       1  UNL         0.0455
     61 H          -7.6624    3.5816   51.8244 H       1  UNL         0.0586
     62 H          -8.5166    3.4321   50.2598 H       1  UNL         0.0586
     63 H          -5.8585    3.9824   50.8581 H       1  UNL         0.0651
     64 H          -3.4346    4.0263   50.4128 H       1  UNL         0.0638
     65 H          -3.4491   -0.2504   49.8120 H       1  UNL         0.0653
     66 H         -12.0625    1.3437   59.3736 H       1  UNL         0.0433
     67 H         -12.4301    2.3930   57.9776 H       1  UNL         0.0433
     68 H         -10.7512    2.2115   58.5758 H       1  UNL         0.0433
     69 H         -10.2396    0.2791   61.7670 H       1  UNL         0.0535
     70 H          -9.0052   -0.8462   61.1509 H       1  UNL         0.0535
     71 H         -10.4297   -1.4704   62.0348 H       1  UNL         0.0535
@<TRIPOS>BOND
     1     1     2   ar
     2     1     6   ar
     3     1    39    1
     4     2     3   ar
     5     2    40    1
     6     3     4   ar
     7     3    37    1
     8     4     5   ar
     9     4     7    1
    10     5     6   ar
    11     5    41    1
    12     6    42    1
    13     7     8    1
    14     7    15    1
    15     7    43    1
    16     8     9   ar
    17     8    13   ar
    18     9    10   ar
    19     9    14    1
    20    10    11   ar
    21    10    44    1
    22    11    12   ar
    23    11    45    1
    24    12    13   ar
    25    12    46    1
    26    14    47    1
    27    14    48    1
    28    14    49    1
    29    15    16   am
    30    15    36    1
    31    16    17    2
    32    16    18    1
    33    18    19    1
    34    18    23    1
    35    18    50    1
    36    19    20    1
    37    19    51    1
    38    19    52    1
    39    20    21    1
    40    20    53    1
    41    20    54    1
    42    21    22    1
    43    21    24    1
    44    22    23    1
    45    22    55    1
    46    22    56    1
    47    23    57    1
    48    23    58    1
    49    24    25    1
    50    24    59    1
    51    24    60    1
    52    25    26    1
    53    25    61    1
    54    25    62    1
    55    26    27    1
    56    27    28   ar
    57    27    32   ar
    58    28    29   ar
    59    28    63    1
    60    29    30   ar
    61    29    64    1
    62    30    31   ar
    63    30    34    1
    64    31    32   ar
    65    31    65    1
    66    32    33    1
    67    34    35    3
    68    36    66    1
    69    36    67    1
    70    36    68    1
    71    37    38    1
    72    38    69    1
    73    38    70    1
    74    38    71    1
@<TRIPOS>SUBSTRUCTURE
     1 UNL         1 TEMP              0 ****  ****    0 ROOT


##########                                Name:    ZINC000506566356
##########                DOCK_Rotatable_Bonds:                  10
##########                         Heavy_Atoms:                  28
##########                    Molecular_Weight:               415.9
##########                DOCK_Rotatable_Bonds:                  10
##########                       Formal_Charge:           0.0199998
##########                     HBond_Acceptors:                   8
##########                        HBond_Donors:                   2
##########                         Heavy_Atoms:                  28
##########                          Grid_Score:          -42.843510
##########                     Grid_vdw_energy:          -40.868675
##########                      Grid_es_energy:           -1.974833
##########           Internal_energy_repulsive:            5.054815

@<TRIPOS>MOLECULE
ZINC000506566356
 46 48 1 0 0
SMALL
USER_CHARGES


@<TRIPOS>ATOM
      1 O1         -8.0655   -2.0603   51.9952 O.2     1  ZINC000506566356   -0.5100
      2 C2         -8.9560   -1.3440   52.4038 C.2     1  ZINC000506566356    0.5100
      3 N3         -8.7048   -0.0497   52.6837 N.am    1  ZINC000506566356   -0.7000
      4 C4         -7.3557    0.4909   52.5004 C.3     1  ZINC000506566356    0.1200
      5 C5         -7.1801    0.9428   51.0492 C.3     1  ZINC000506566356   -0.0900
      6 C6         -5.8102    1.5455   50.8730 C.ar    1  ZINC000506566356   -0.0700
      7 C7         -4.8060    0.8135   50.2678 C.ar    1  ZINC000506566356   -0.1100
      8 C8         -3.5490    1.3659   50.1052 C.ar    1  ZINC000506566356   -0.1000
      9 C9         -3.2957    2.6501   50.5484 C.ar    1  ZINC000506566356   -0.1100
     10 C10        -4.3006    3.3833   51.1544 C.ar    1  ZINC000506566356   -0.0300
     11 Cl11       -3.9833    4.9969   51.7108 Cl      1  ZINC000506566356   -0.0700
     12 C12        -5.5596    2.8323   51.3115 C.ar    1  ZINC000506566356   -0.1000
     13 C13       -10.3313   -1.8951   52.5907 C.2     1  ZINC000506566356    0.5100
     14 O14       -10.6598   -2.9138   52.0182 O.2     1  ZINC000506566356   -0.5000
     15 N15       -11.2077   -1.2614   53.3949 N.am    1  ZINC000506566356   -0.6300
     16 C16       -12.4959   -1.7776   53.5699 C.ar    1  ZINC000506566356    0.1100
     17 C17       -13.4793   -1.5302   52.6227 C.ar    1  ZINC000506566356   -0.0800
     18 C18       -14.7513   -2.0414   52.7981 C.ar    1  ZINC000506566356   -0.1400
     19 C19       -15.0475   -2.7994   53.9158 C.ar    1  ZINC000506566356   -0.0900
     20 C20       -14.0732   -3.0500   54.8645 C.ar    1  ZINC000506566356   -0.1900
     21 C21       -12.7940   -2.5468   54.6937 C.ar    1  ZINC000506566356    0.1200
     22 O22       -11.8350   -2.7923   55.6256 O.3     1  ZINC000506566356   -0.3100
     23 C23       -12.0654   -2.2869   56.9423 C.3     1  ZINC000506566356    0.1400
     24 C24       -10.9119   -2.6662   57.8348 C.2     1  ZINC000506566356    0.0500
     25 C25       -10.5701   -3.9357   58.0742 C.2     1  ZINC000506566356   -0.2300
     26 S26        -9.1815   -3.9282   59.1589 S.3     1  ZINC000506566356    0.1400
     27 C27        -9.1986   -2.2186   59.1824 C.2     1  ZINC000506566356    0.0200
     28 N28       -10.1542   -1.7730   58.4388 N.2     1  ZINC000506566356   -0.4700
     29 H29        -9.4174    0.5238   53.0066 H       1  ZINC000506566356    0.4200
     30 H30        -7.2118    1.3421   53.1659 H       1  ZINC000506566356    0.0800
     31 H31        -6.6208   -0.2799   52.7323 H       1  ZINC000506566356    0.0800
     32 H32        -7.2875    0.0845   50.3859 H       1  ZINC000506566356    0.0900
     33 H33        -7.9385    1.6870   50.8062 H       1  ZINC000506566356    0.0900
     34 H34        -5.0033   -0.1904   49.9219 H       1  ZINC000506566356    0.1300
     35 H35        -2.7647    0.7935   49.6322 H       1  ZINC000506566356    0.1300
     36 H36        -2.3135    3.0812   50.4221 H       1  ZINC000506566356    0.1300
     37 H37        -6.3443    3.4041   51.7844 H       1  ZINC000506566356    0.1300
     38 H38       -10.9452   -0.4473   53.8524 H       1  ZINC000506566356    0.4300
     39 H39       -13.2507   -0.9382   51.7489 H       1  ZINC000506566356    0.1500
     40 H40       -15.5160   -1.8479   52.0604 H       1  ZINC000506566356    0.1300
     41 H41       -16.0430   -3.1967   54.0485 H       1  ZINC000506566356    0.1300
     42 H42       -14.3085   -3.6419   55.7367 H       1  ZINC000506566356    0.1400
     43 H43       -12.1538   -1.2012   56.9044 H       1  ZINC000506566356    0.0900
     44 H44       -12.9869   -2.7129   57.3389 H       1  ZINC000506566356    0.0900
     45 H45       -11.0586   -4.8117   57.6737 H       1  ZINC000506566356    0.1800
     46 H46        -8.5068   -1.6011   59.7361 H       1  ZINC000506566356    0.2100
@<TRIPOS>BOND
     1     1     2    2
     2     2     3   am
     3     2    13    1
     4     3     4    1
     5     3    29    1
     6     4     5    1
     7     4    30    1
     8     4    31    1
     9     5     6    1
    10     5    32    1
    11     5    33    1
    12     6    12   ar
    13     6     7   ar
    14     7     8   ar
    15     7    34    1
    16     8     9   ar
    17     8    35    1
    18     9    10   ar
    19     9    36    1
    20    10    11    1
    21    10    12   ar
    22    12    37    1
    23    13    14    2
    24    13    15   am
    25    15    16    1
    26    15    38    1
    27    16    21   ar
    28    16    17   ar
    29    17    18   ar
    30    17    39    1
    31    18    19   ar
    32    18    40    1
    33    19    20   ar
    34    19    41    1
    35    20    21   ar
    36    20    42    1
    37    21    22    1
    38    22    23    1
    39    23    24    1
    40    23    43    1
    41    23    44    1
    42    24    28    1
    43    24    25    2
    44    25    26    1
    45    25    45    1
    46    26    27    1
    47    27    28    2
    48    27    46    1
@<TRIPOS>SUBSTRUCTURE
     1 ZINC000506566356        1 TEMP              0 ****  ****    0 ROOT


##########                                Name:    ZINC000790205345
##########                DOCK_Rotatable_Bonds:                   7
##########                         Heavy_Atoms:                  28
##########                    Molecular_Weight:             382.459
##########                DOCK_Rotatable_Bonds:                   7
##########                       Formal_Charge:          -0.0299997
##########                     HBond_Acceptors:                   6
##########                        HBond_Donors:                   0
##########                         Heavy_Atoms:                  28
##########                          Grid_Score:          -42.752636
##########                     Grid_vdw_energy:          -39.963909
##########                      Grid_es_energy:           -2.788726
##########           Internal_energy_repulsive:           21.031834

@<TRIPOS>MOLECULE
ZINC000790205345
 54 56 1 0 0
SMALL
USER_CHARGES


@<TRIPOS>ATOM
      1 C1         -2.5895    1.5028   49.5440 C.3     1  ZINC000790205345   -0.1100
      2 C2         -3.9738    1.3076   50.1067 C.ar    1  ZINC000790205345   -0.1300
      3 C3         -4.5995    0.0805   49.9897 C.ar    1  ZINC000790205345   -0.0800
      4 C4         -5.8685   -0.1012   50.5051 C.ar    1  ZINC000790205345   -0.2100
      5 C5         -6.5146    0.9491   51.1404 C.ar    1  ZINC000790205345    0.1300
      6 O6         -7.7626    0.7728   51.6488 O.3     1  ZINC000790205345   -0.2900
      7 C7         -7.8829    0.7281   53.0720 C.3     1  ZINC000790205345    0.0400
      8 C8         -9.2966    0.3629   53.4454 C.2     1  ZINC000790205345    0.5200
      9 O9         -9.9924   -0.2475   52.6617 O.2     1  ZINC000790205345   -0.5100
     10 N10        -9.7877    0.7147   54.6501 N.am    1  ZINC000790205345   -0.6100
     11 C11        -8.9478    1.4538   55.5961 C.3     1  ZINC000790205345    0.0700
     12 C12       -11.1613    0.3583   55.0137 C.3     1  ZINC000790205345    0.1800
     13 H13       -11.7492    0.2066   54.1084 H       1  ZINC000790205345    0.1200
     14 C14       -11.7796    1.4880   55.8399 C.3     1  ZINC000790205345   -0.1600
     15 C15       -11.1528   -0.9112   55.8257 C.ar    1  ZINC000790205345   -0.0700
     16 C16       -11.6539   -2.0805   55.2844 C.ar    1  ZINC000790205345   -0.1300
     17 C17       -11.6484   -3.2475   56.0266 C.ar    1  ZINC000790205345   -0.0900
     18 C18       -11.1414   -3.2482   57.3111 C.ar    1  ZINC000790205345   -0.1500
     19 C19       -10.6368   -2.0753   57.8575 C.ar    1  ZINC000790205345    0.1800
     20 N20       -10.1221   -2.0728   59.1590 N.am    1  ZINC000790205345   -0.5700
     21 C21       -10.3686   -1.0376   60.1744 C.3     1  ZINC000790205345    0.0600
     22 C22        -9.5747   -1.5293   61.4000 C.3     1  ZINC000790205345    0.0400
     23 O23        -8.9704   -2.7769   60.9516 O.3     1  ZINC000790205345   -0.3200
     24 C24        -9.3289   -3.0162   59.6851 C.2     1  ZINC000790205345    0.6400
     25 O25        -8.9623   -3.9952   59.0658 O.2     1  ZINC000790205345   -0.5000
     26 C26       -10.6392   -0.9065   57.1080 C.ar    1  ZINC000790205345   -0.1400
     27 C27        -5.8844    2.1798   51.2567 C.ar    1  ZINC000790205345   -0.1500
     28 C28        -4.6137    2.3547   50.7444 C.ar    1  ZINC000790205345   -0.0500
     29 C29        -3.9283    3.6909   50.8706 C.3     1  ZINC000790205345   -0.1200
     30 H30        -1.8496    1.2524   50.3043 H       1  ZINC000790205345    0.0700
     31 H31        -2.4545    0.8545   48.6782 H       1  ZINC000790205345    0.0600
     32 H32        -2.4631    2.5426   49.2425 H       1  ZINC000790205345    0.0700
     33 H33        -4.0963   -0.7368   49.4945 H       1  ZINC000790205345    0.1300
     34 H34        -6.3571   -1.0599   50.4130 H       1  ZINC000790205345    0.1300
     35 H35        -7.1972   -0.0193   53.4713 H       1  ZINC000790205345    0.1000
     36 H36        -7.6380    1.7052   53.4883 H       1  ZINC000790205345    0.0900
     37 H37        -8.9963    2.5189   55.3698 H       1  ZINC000790205345    0.0600
     38 H38        -9.3057    1.2813   56.6111 H       1  ZINC000790205345    0.0800
     39 H39        -7.9167    1.1109   55.5112 H       1  ZINC000790205345    0.0700
     40 H40       -11.1919    1.6397   56.7452 H       1  ZINC000790205345    0.0600
     41 H41       -11.7859    2.4062   55.2526 H       1  ZINC000790205345    0.0700
     42 H42       -12.8018    1.2228   56.1104 H       1  ZINC000790205345    0.0800
     43 H43       -12.0509   -2.0826   54.2800 H       1  ZINC000790205345    0.1300
     44 H44       -12.0412   -4.1592   55.6012 H       1  ZINC000790205345    0.1300
     45 H45       -11.1377   -4.1598   57.8902 H       1  ZINC000790205345    0.1300
     46 H46        -9.9918   -0.0723   59.8363 H       1  ZINC000790205345    0.1000
     47 H47       -11.4316   -0.9747   60.4068 H       1  ZINC000790205345    0.1000
     48 H48        -8.8043   -0.8074   61.6710 H       1  ZINC000790205345    0.1100
     49 H49       -10.2438   -1.7096   62.2414 H       1  ZINC000790205345    0.1100
     50 H50       -10.2472    0.0071   57.5301 H       1  ZINC000790205345    0.1600
     51 H51        -6.3854    2.9991   51.7507 H       1  ZINC000790205345    0.1300
     52 H52        -3.3604    3.7215   51.8005 H       1  ZINC000790205345    0.0700
     53 H53        -3.2527    3.8339   50.0273 H       1  ZINC000790205345    0.0700
     54 H54        -4.6763    4.4838   50.8755 H       1  ZINC000790205345    0.0700
@<TRIPOS>BOND
     1     1     2    1
     2     1    30    1
     3     1    31    1
     4     1    32    1
     5     2    28   ar
     6     2     3   ar
     7     3     4   ar
     8     3    33    1
     9     4     5   ar
    10     4    34    1
    11     5     6    1
    12     5    27   ar
    13     6     7    1
    14     7     8    1
    15     7    35    1
    16     7    36    1
    17     8     9    2
    18     8    10   am
    19    10    11    1
    20    10    12    1
    21    11    37    1
    22    11    38    1
    23    11    39    1
    24    12    13    1
    25    12    14    1
    26    12    15    1
    27    14    40    1
    28    14    41    1
    29    14    42    1
    30    15    26   ar
    31    15    16   ar
    32    16    17   ar
    33    16    43    1
    34    17    18   ar
    35    17    44    1
    36    18    19   ar
    37    18    45    1
    38    19    20    1
    39    19    26   ar
    40    20    24   am
    41    20    21    1
    42    21    22    1
    43    21    46    1
    44    21    47    1
    45    22    23    1
    46    22    48    1
    47    22    49    1
    48    23    24    1
    49    24    25    2
    50    26    50    1
    51    27    28   ar
    52    27    51    1
    53    28    29    1
    54    29    52    1
    55    29    53    1
    56    29    54    1
@<TRIPOS>SUBSTRUCTURE
     1 ZINC000790205345        1 TEMP              0 ****  ****    0 ROOT


##########                                Name:     oleObject70.pdb
##########                DOCK_Rotatable_Bonds:                   9
##########                         Heavy_Atoms:                  35
##########                    Molecular_Weight:             504.458
##########                DOCK_Rotatable_Bonds:                   9
##########                       Formal_Charge:          0.00010002
##########                     HBond_Acceptors:                   6
##########                        HBond_Donors:                   2
##########                         Heavy_Atoms:                  35
##########                          Grid_Score:          -42.569504
##########                     Grid_vdw_energy:          -42.190819
##########                      Grid_es_energy:           -0.378683
##########           Internal_energy_repulsive:           17.471041

@<TRIPOS>MOLECULE
oleObject70.pdb
 62 65 1 0 0
SMALL
NO_CHARGES


@<TRIPOS>ATOM
      1 C         -11.0311   -1.0721   57.3936 C.ar    1  UNL        -0.0620
      2 C         -11.6243   -2.0935   56.6381 C.ar    1  UNL        -0.0590
      3 C         -11.5066   -2.1124   55.2347 C.ar    1  UNL        -0.0456
      4 C         -10.7714   -1.0932   54.5771 C.ar    1  UNL        -0.0187
      5 C         -10.1929   -0.0637   55.3513 C.ar    1  UNL        -0.0565
      6 C         -10.3185   -0.0534   56.7482 C.ar    1  UNL        -0.0619
      7 C         -10.6210   -1.0810   53.0454 C.3     1  UNL         0.0909
      8 C         -11.9208   -0.7481   52.2925 C.ar    1  UNL         0.0681
      9 C         -12.6192    0.4670   52.5088 C.ar    1  UNL        -0.0272
     10 C         -13.8042    0.6963   51.7843 C.ar    1  UNL        -0.0559
     11 C         -14.2496   -0.2748   50.8761 C.ar    1  UNL        -0.0435
     12 C         -13.4926   -1.4450   50.7191 C.ar    1  UNL         0.0272
     13 N         -12.3584   -1.6733   51.4067 N.ar    1  UNL        -0.2587
     14 C         -12.1345    1.5217   53.4974 C.3     1  UNL        -0.0379
     15 N          -9.4319   -0.3264   52.5916 N.am    1  UNL        -0.2987
     16 C          -8.2619   -0.8597   52.0651 C.2     1  UNL         0.2437
     17 O          -8.0967   -2.0574   51.9094 O.2     1  UNL        -0.2719
     18 C          -7.1922    0.1327   51.6764 C.ar    1  UNL         0.0371
     19 C          -6.1000   -0.2232   50.8533 C.ar    1  UNL        -0.0494
     20 C          -5.1233    0.7262   50.5100 C.ar    1  UNL        -0.0570
     21 C          -5.2168    2.0464   50.9806 C.ar    1  UNL        -0.0341
     22 C          -6.3004    2.4093   51.7974 C.ar    1  UNL        -0.0570
     23 C          -7.2772    1.4612   52.1424 C.ar    1  UNL        -0.0494
     24 C          -4.1624    3.0724   50.6013 C.3     1  UNL         0.0208
     25 N          -2.8629    2.7519   51.2052 N.4     1  UNL        -0.3086
     26 C          -1.8217    3.7527   50.9373 C.3     1  UNL         0.0223
     27 C          -0.4269    3.1552   51.0656 C.ar    1  UNL        -0.0154
     28 C           0.4675    3.6887   52.0133 C.ar    1  UNL        -0.0548
     29 C           1.7582    3.1536   52.1557 C.ar    1  UNL        -0.0431
     30 C           2.1631    2.0778   51.3506 C.ar    1  UNL         0.0421
     31 C           1.2784    1.5362   50.4050 C.ar    1  UNL        -0.0245
     32 C          -0.0133    2.0706   50.2613 C.ar    1  UNL         0.0465
     33 CL         -1.0853    1.3535   49.0721 Cl      1  UNL        -0.0839
     34 CL          3.7714    1.4092   51.5278 Cl      1  UNL        -0.0843
     35 C         -12.1968   -3.2331   54.4633 C.3     1  UNL        -0.0394
     36 H         -11.1322   -1.0650   58.4751 H       1  UNL         0.0623
     37 H         -12.1847   -2.8717   57.1486 H       1  UNL         0.0626
     38 H          -9.6493    0.7442   54.8732 H       1  UNL         0.0627
     39 H          -9.8677    0.7468   57.3280 H       1  UNL         0.0623
     40 H         -10.3839   -2.1115   52.7646 H       1  UNL         0.0624
     41 H         -14.3731    1.6112   51.9235 H       1  UNL         0.0627
     42 H         -15.1614   -0.1249   50.3058 H       1  UNL         0.0639
     43 H         -13.8029   -2.2244   50.0246 H       1  UNL         0.0840
     44 H         -12.1609    1.1413   54.5257 H       1  UNL         0.0280
     45 H         -12.7621    2.4211   53.4668 H       1  UNL         0.0280
     46 H         -11.1075    1.8353   53.2742 H       1  UNL         0.0280
     47 H          -9.4721    0.6794   52.6799 H       1  UNL         0.1508
     48 H          -5.9930   -1.2329   50.4706 H       1  UNL         0.0631
     49 H          -4.2926    0.4358   49.8727 H       1  UNL         0.0626
     50 H          -6.3886    3.4282   52.1642 H       1  UNL         0.0626
     51 H          -8.1062    1.7665   52.7749 H       1  UNL         0.0631
     52 H          -4.4913    4.0659   50.9328 H       1  UNL         0.0479
     53 H          -4.0659    3.1027   49.5081 H       1  UNL         0.0479
     54 H          -2.5498    1.8448   50.8598 H       1  UNL         0.1229
     55 H          -1.9247    4.5864   51.6439 H       1  UNL         0.0480
     56 H          -1.9492    4.1654   49.9283 H       1  UNL         0.0480
     57 H           0.1604    4.5185   52.6439 H       1  UNL         0.0627
     58 H           2.4411    3.5716   52.8900 H       1  UNL         0.0639
     59 H           1.5927    0.7014   49.7850 H       1  UNL         0.0654
     60 H         -12.8379   -3.8395   55.1154 H       1  UNL         0.0280
     61 H         -11.4620   -3.9078   54.0068 H       1  UNL         0.0280
     62 H         -12.8350   -2.8319   53.6660 H       1  UNL         0.0280
@<TRIPOS>BOND
     1     1     2   ar
     2     1     6   ar
     3     1    36    1
     4     2     3   ar
     5     2    37    1
     6     3     4   ar
     7     3    35    1
     8     4     5   ar
     9     4     7    1
    10     5     6   ar
    11     5    38    1
    12     6    39    1
    13     7     8    1
    14     7    15    1
    15     7    40    1
    16     8     9   ar
    17     8    13   ar
    18     9    10   ar
    19     9    14    1
    20    10    11   ar
    21    10    41    1
    22    11    12   ar
    23    11    42    1
    24    12    13   ar
    25    12    43    1
    26    14    44    1
    27    14    45    1
    28    14    46    1
    29    15    16   am
    30    15    47    1
    31    16    17    2
    32    16    18    1
    33    18    19   ar
    34    18    23   ar
    35    19    20   ar
    36    19    48    1
    37    20    21   ar
    38    20    49    1
    39    21    22   ar
    40    21    24    1
    41    22    23   ar
    42    22    50    1
    43    23    51    1
    44    24    25    1
    45    24    52    1
    46    24    53    1
    47    25    26    1
    48    25    54    1
    49    26    27    1
    50    26    55    1
    51    26    56    1
    52    27    28   ar
    53    27    32   ar
    54    28    29   ar
    55    28    57    1
    56    29    30   ar
    57    29    58    1
    58    30    31   ar
    59    30    34    1
    60    31    32   ar
    61    31    59    1
    62    32    33    1
    63    35    60    1
    64    35    61    1
    65    35    62    1
@<TRIPOS>SUBSTRUCTURE
     1 UNL         1 TEMP              0 ****  ****    0 ROOT


##########                                Name:    ZINC000746432885
##########                DOCK_Rotatable_Bonds:                  11
##########                         Heavy_Atoms:                  31
##########                    Molecular_Weight:              419.44
##########                DOCK_Rotatable_Bonds:                  11
##########                       Formal_Charge:           0.0199995
##########                     HBond_Acceptors:                   9
##########                        HBond_Donors:                   2
##########                         Heavy_Atoms:                  31
##########                          Grid_Score:          -42.417862
##########                     Grid_vdw_energy:          -36.062904
##########                      Grid_es_energy:           -6.354957
##########           Internal_energy_repulsive:           22.580385

@<TRIPOS>MOLECULE
ZINC000746432885
 52 54 1 0 0
SMALL
USER_CHARGES


@<TRIPOS>ATOM
      1 C1         -8.4251    1.1861   55.5617 C.3     1  ZINC000746432885    0.0300
      2 O2         -9.2186    1.3571   54.3856 O.3     1  ZINC000746432885   -0.3200
      3 C3         -8.7626    2.2376   53.4563 C.ar    1  ZINC000746432885    0.1300
      4 C4         -9.6401    2.7948   52.5376 C.ar    1  ZINC000746432885   -0.2000
      5 C5         -9.1741    3.6895   51.5938 C.ar    1  ZINC000746432885   -0.0800
      6 C6         -7.8342    4.0294   51.5641 C.ar    1  ZINC000746432885   -0.1400
      7 C7         -6.9576    3.4754   52.4786 C.ar    1  ZINC000746432885   -0.0600
      8 C8         -5.4979    3.8484   52.4437 C.3     1  ZINC000746432885    0.2300
      9 N9         -4.9047    3.6234   53.7643 N.am    1  ZINC000746432885   -0.6900
     10 C10        -4.2372    4.6184   54.3814 C.2     1  ZINC000746432885    0.5200
     11 O11        -4.1287    5.7011   53.8439 O.2     1  ZINC000746432885   -0.5100
     12 C12        -3.6310    4.3886   55.7266 C.2     1  ZINC000746432885    0.5100
     13 O13        -3.0342    5.2864   56.2849 O.2     1  ZINC000746432885   -0.5100
     14 N14        -3.7464    3.1845   56.3210 N.am    1  ZINC000746432885   -0.6100
     15 C15        -3.1776    2.9688   57.5872 C.2     1  ZINC000746432885    0.0000
     16 C16        -2.4075    1.9098   57.9493 C.2     1  ZINC000746432885    0.0400
     17 N17        -2.0619    2.0786   59.2457 N.pl3   1  ZINC000746432885   -0.3800
     18 C18        -1.2327    1.1696   60.0410 C.3     1  ZINC000746432885    0.2500
     19 C19        -1.5114    1.3762   61.4715 C.1     1  ZINC000746432885    0.1900
     20 N20        -1.7264    1.5358   62.5755 N.1     1  ZINC000746432885   -0.3900
     21 N21        -2.6353    3.2750   59.6946 N.2     1  ZINC000746432885   -0.2800
     22 C22        -3.2983    3.8118   58.7028 C.2     1  ZINC000746432885    0.0700
     23 C23        -4.7867    2.9987   51.4222 C.ar    1  ZINC000746432885   -0.0500
     24 C24        -3.6930    3.5042   50.7442 C.ar    1  ZINC000746432885   -0.1500
     25 C25        -3.0380    2.7270   49.8068 C.ar    1  ZINC000746432885   -0.0700
     26 C26        -3.4753    1.4429   49.5454 C.ar    1  ZINC000746432885   -0.2000
     27 C27        -4.5725    0.9334   50.2244 C.ar    1  ZINC000746432885    0.1300
     28 O28        -5.0046   -0.3296   49.9691 O.3     1  ZINC000746432885   -0.3200
     29 C29        -6.3687   -0.6232   50.2772 C.3     1  ZINC000746432885    0.0300
     30 C30        -5.2247    1.7134   51.1683 C.ar    1  ZINC000746432885   -0.1300
     31 C31        -7.4198    2.5849   53.4282 C.ar    1  ZINC000746432885   -0.1300
     32 H32        -8.3354    2.1401   56.0814 H       1  ZINC000746432885    0.0600
     33 H33        -8.9011    0.4580   56.2186 H       1  ZINC000746432885    0.1000
     34 H34        -7.4335    0.8299   55.2824 H       1  ZINC000746432885    0.0600
     35 H35       -10.6867    2.5291   52.5599 H       1  ZINC000746432885    0.1300
     36 H36        -9.8569    4.1237   50.8784 H       1  ZINC000746432885    0.1300
     37 H37        -7.4716    4.7285   50.8251 H       1  ZINC000746432885    0.1200
     38 H38        -5.3979    4.8999   52.1747 H       1  ZINC000746432885    0.1200
     39 H39        -4.9924    2.7585   54.1945 H       1  ZINC000746432885    0.4200
     40 H40        -4.2222    2.4669   55.8744 H       1  ZINC000746432885    0.4200
     41 H41        -2.1229    1.0825   57.3161 H       1  ZINC000746432885    0.1900
     42 H42        -1.4623    0.1388   59.7714 H       1  ZINC000746432885    0.1300
     43 H43        -0.1800    1.3711   59.8431 H       1  ZINC000746432885    0.1500
     44 H44        -3.8490    4.7401   58.7382 H       1  ZINC000746432885    0.2100
     45 H45        -3.3498    4.5080   50.9468 H       1  ZINC000746432885    0.1200
     46 H46        -2.1840    3.1243   49.2781 H       1  ZINC000746432885    0.1300
     47 H47        -2.9635    0.8364   48.8128 H       1  ZINC000746432885    0.1300
     48 H48        -6.5825   -1.6621   50.0259 H       1  ZINC000746432885    0.1000
     49 H49        -6.5434   -0.4633   51.3410 H       1  ZINC000746432885    0.0600
     50 H50        -7.0208    0.0320   49.6994 H       1  ZINC000746432885    0.0600
     51 H51        -6.0790    1.3190   51.6983 H       1  ZINC000746432885    0.1400
     52 H52        -6.7347    2.1524   54.1423 H       1  ZINC000746432885    0.1300
@<TRIPOS>BOND
     1     1     2    1
     2     1    32    1
     3     1    33    1
     4     1    34    1
     5     2     3    1
     6     3    31   ar
     7     3     4   ar
     8     4     5   ar
     9     4    35    1
    10     5     6   ar
    11     5    36    1
    12     6     7   ar
    13     6    37    1
    14     7     8    1
    15     7    31   ar
    16     8     9    1
    17     8    23    1
    18     8    38    1
    19     9    10   am
    20     9    39    1
    21    10    11    2
    22    10    12    1
    23    12    13    2
    24    12    14   am
    25    14    15    1
    26    14    40    1
    27    15    22    1
    28    15    16    2
    29    16    17    1
    30    16    41    1
    31    17    18    1
    32    17    21    1
    33    18    19    1
    34    18    42    1
    35    18    43    1
    36    19    20    3
    37    21    22    2
    38    22    44    1
    39    23    30   ar
    40    23    24   ar
    41    24    25   ar
    42    24    45    1
    43    25    26   ar
    44    25    46    1
    45    26    27   ar
    46    26    47    1
    47    27    28    1
    48    27    30   ar
    49    28    29    1
    50    29    48    1
    51    29    49    1
    52    29    50    1
    53    30    51    1
    54    31    52    1
@<TRIPOS>SUBSTRUCTURE
     1 ZINC000746432885        1 TEMP              0 ****  ****    0 ROOT


##########                                Name:    ZINC000512699033
##########                DOCK_Rotatable_Bonds:                   9
##########                         Heavy_Atoms:                  30
##########                    Molecular_Weight:              405.54
##########                DOCK_Rotatable_Bonds:                   9
##########                       Formal_Charge:           0.0199988
##########                     HBond_Acceptors:                   5
##########                        HBond_Donors:                   2
##########                         Heavy_Atoms:                  30
##########                          Grid_Score:          -42.305092
##########                     Grid_vdw_energy:          -42.256657
##########                      Grid_es_energy:           -0.048436
##########           Internal_energy_repulsive:           12.662344

@<TRIPOS>MOLECULE
ZINC000512699033
 61 64 1 0 0
SMALL
USER_CHARGES


@<TRIPOS>ATOM
      1 O1        -12.6490   -1.8636   53.4900 O.2     1  ZINC000512699033   -0.5100
      2 C2        -11.5074   -2.2315   53.6700 C.2     1  ZINC000512699033    0.5200
      3 C3        -10.3925   -1.6687   52.8266 C.3     1  ZINC000512699033   -0.1500
      4 C4         -9.8797   -0.3728   53.4579 C.3     1  ZINC000512699033    0.1300
      5 N5         -8.5971   -0.0082   52.8511 N.am    1  ZINC000512699033   -0.7300
      6 C6         -8.2621    1.2899   52.7123 C.2     1  ZINC000512699033    0.5200
      7 O7         -9.0231    2.1561   53.0882 O.2     1  ZINC000512699033   -0.5300
      8 C8         -6.9419    1.6650   52.0897 C.3     1  ZINC000512699033   -0.1100
      9 C9         -6.5028    0.5636   51.1228 C.3     1  ZINC000512699033   -0.1100
     10 C10        -5.1624    0.9445   50.4908 C.3     1  ZINC000512699033   -0.1200
     11 C11        -5.3142    2.2620   49.7281 C.3     1  ZINC000512699033   -0.1200
     12 C12        -5.7534    3.3634   50.6951 C.3     1  ZINC000512699033   -0.1200
     13 C13        -7.0937    2.9826   51.3271 C.3     1  ZINC000512699033   -0.1000
     14 N14       -11.2351   -3.1396   54.6280 N.am    1  ZINC000512699033   -0.6600
     15 C15       -12.2704   -3.6622   55.4111 C.ar    1  ZINC000512699033    0.1700
     16 C16       -13.1984   -4.5289   54.8492 C.ar    1  ZINC000512699033   -0.1400
     17 C17       -14.2188   -5.0435   55.6252 C.ar    1  ZINC000512699033   -0.1000
     18 C18       -14.3169   -4.6959   56.9598 C.ar    1  ZINC000512699033   -0.1400
     19 C19       -13.3942   -3.8329   57.5224 C.ar    1  ZINC000512699033   -0.0900
     20 C20       -12.3684   -3.3196   56.7535 C.ar    1  ZINC000512699033   -0.1200
     21 C21       -11.3634   -2.3793   57.3674 C.3     1  ZINC000512699033    0.0900
     22 N22       -11.2098   -2.6907   58.7948 N.3     1  ZINC000512699033   -0.4700
     23 C23       -10.1378   -3.6874   59.0076 C.3     1  ZINC000512699033    0.0500
     24 C24        -9.5900   -3.3025   60.4010 C.3     1  ZINC000512699033   -0.0900
     25 C25        -9.9352   -1.8302   60.5037 C.ar    1  ZINC000512699033   -0.1400
     26 C26        -9.4816   -0.8412   61.3504 C.ar    1  ZINC000512699033   -0.0800
     27 C27        -9.9630    0.4502   61.2292 C.ar    1  ZINC000512699033   -0.1400
     28 C28       -10.8999    0.7476   60.2568 C.ar    1  ZINC000512699033   -0.0900
     29 C29       -11.3586   -0.2389   59.4085 C.ar    1  ZINC000512699033   -0.1400
     30 C30       -10.8808   -1.5427   59.5262 C.ar    1  ZINC000512699033    0.0900
     31 H31        -9.5790   -2.3920   52.7700 H       1  ZINC000512699033    0.1100
     32 H32       -10.7650   -1.4615   51.8234 H       1  ZINC000512699033    0.1000
     33 H33       -10.6023    0.4252   53.2873 H       1  ZINC000512699033    0.0800
     34 H34        -9.7461   -0.5189   54.5297 H       1  ZINC000512699033    0.0800
     35 H35        -7.9889   -0.7010   52.5494 H       1  ZINC000512699033    0.4000
     36 H36        -6.1918    1.7822   52.8719 H       1  ZINC000512699033    0.1000
     37 H37        -6.3946   -0.3751   51.6662 H       1  ZINC000512699033    0.0700
     38 H38        -7.2529    0.4464   50.3408 H       1  ZINC000512699033    0.0700
     39 H39        -4.4123    1.0616   51.2729 H       1  ZINC000512699033    0.0600
     40 H40        -4.8495    0.1599   49.8020 H       1  ZINC000512699033    0.0700
     41 H41        -4.3594    2.5333   49.2779 H       1  ZINC000512699033    0.0600
     42 H42        -6.0645    2.1448   48.9461 H       1  ZINC000512699033    0.0600
     43 H43        -5.0033    3.4807   51.4771 H       1  ZINC000512699033    0.0600
     44 H44        -5.8616    4.3021   50.1516 H       1  ZINC000512699033    0.0700
     45 H45        -7.8439    2.8653   50.5450 H       1  ZINC000512699033    0.0700
     46 H46        -7.4066    3.7672   52.0159 H       1  ZINC000512699033    0.0700
     47 H47       -10.3216   -3.4309   54.7746 H       1  ZINC000512699033    0.4200
     48 H48       -13.1225   -4.8002   53.8066 H       1  ZINC000512699033    0.1500
     49 H49       -14.9409   -5.7175   55.1887 H       1  ZINC000512699033    0.1300
     50 H50       -15.1161   -5.0990   57.5641 H       1  ZINC000512699033    0.1200
     51 H51       -13.4736   -3.5633   58.5652 H       1  ZINC000512699033    0.1200
     52 H52       -10.4032   -2.4953   56.8648 H       1  ZINC000512699033    0.0600
     53 H53       -11.7107   -1.3523   57.2549 H       1  ZINC000512699033    0.0900
     54 H54       -10.5461   -4.6980   59.0181 H       1  ZINC000512699033    0.1000
     55 H55        -9.3630   -3.5901   58.2471 H       1  ZINC000512699033    0.0600
     56 H56       -10.0914   -3.8720   61.1836 H       1  ZINC000512699033    0.0900
     57 H57        -8.5109   -3.4501   60.4458 H       1  ZINC000512699033    0.0800
     58 H58        -8.7498   -1.0749   62.1095 H       1  ZINC000512699033    0.1200
     59 H59        -9.6080    1.2244   61.8931 H       1  ZINC000512699033    0.1300
     60 H60       -11.2743    1.7560   60.1613 H       1  ZINC000512699033    0.1300
     61 H61       -12.0908   -0.0001   58.6512 H       1  ZINC000512699033    0.1200
@<TRIPOS>BOND
     1     1     2    2
     2     2     3    1
     3     2    14   am
     4     3     4    1
     5     3    31    1
     6     3    32    1
     7     4     5    1
     8     4    33    1
     9     4    34    1
    10     5     6   am
    11     5    35    1
    12     6     7    2
    13     6     8    1
    14     8    13    1
    15     8     9    1
    16     8    36    1
    17     9    10    1
    18     9    37    1
    19     9    38    1
    20    10    11    1
    21    10    39    1
    22    10    40    1
    23    11    12    1
    24    11    41    1
    25    11    42    1
    26    12    13    1
    27    12    43    1
    28    12    44    1
    29    13    45    1
    30    13    46    1
    31    14    15    1
    32    14    47    1
    33    15    20   ar
    34    15    16   ar
    35    16    17   ar
    36    16    48    1
    37    17    18   ar
    38    17    49    1
    39    18    19   ar
    40    18    50    1
    41    19    20   ar
    42    19    51    1
    43    20    21    1
    44    21    22    1
    45    21    52    1
    46    21    53    1
    47    22    30    1
    48    22    23    1
    49    23    24    1
    50    23    54    1
    51    23    55    1
    52    24    25    1
    53    24    56    1
    54    24    57    1
    55    25    30   ar
    56    25    26   ar
    57    26    27   ar
    58    26    58    1
    59    27    28   ar
    60    27    59    1
    61    28    29   ar
    62    28    60    1
    63    29    30   ar
    64    29    61    1
@<TRIPOS>SUBSTRUCTURE
     1 ZINC000512699033        1 TEMP              0 ****  ****    0 ROOT


##########                                Name:    ZINC000508571532
##########                DOCK_Rotatable_Bonds:                   9
##########                         Heavy_Atoms:                  30
##########                    Molecular_Weight:             422.407
##########                DOCK_Rotatable_Bonds:                   9
##########                       Formal_Charge:           0.0100001
##########                     HBond_Acceptors:                  10
##########                        HBond_Donors:                   0
##########                         Heavy_Atoms:                  30
##########                          Grid_Score:          -42.271790
##########                     Grid_vdw_energy:          -40.486729
##########                      Grid_es_energy:           -1.785060
##########           Internal_energy_repulsive:           19.365793

@<TRIPOS>MOLECULE
ZINC000508571532
 51 53 1 0 0
SMALL
USER_CHARGES


@<TRIPOS>ATOM
      1 C1         -1.3897    2.5408   49.1204 C.3     1  ZINC000508571532    0.0300
      2 O2         -2.4506    3.1544   49.8551 O.3     1  ZINC000508571532   -0.3200
      3 C3         -3.4906    2.3577   50.2196 C.ar    1  ZINC000508571532    0.0900
      4 C4         -3.4802    1.0103   49.8910 C.ar    1  ZINC000508571532   -0.1700
      5 C5         -4.5366    0.2009   50.2612 C.ar    1  ZINC000508571532   -0.1100
      6 C6         -5.6074    0.7357   50.9621 C.ar    1  ZINC000508571532    0.0900
      7 O7         -6.6476   -0.0610   51.3261 O.3     1  ZINC000508571532   -0.3100
      8 C8         -7.6476    0.5206   52.1649 C.3     1  ZINC000508571532    0.1500
      9 C9         -8.7025   -0.5093   52.4773 C.2     1  ZINC000508571532    0.1700
     10 N10        -8.9139   -1.6194   51.8288 N.2     1  ZINC000508571532   -0.2500
     11 N11        -9.8906   -2.2623   52.3624 N.2     1  ZINC000508571532   -0.3000
     12 C12       -10.3584   -1.5914   53.3884 C.2     1  ZINC000508571532    0.3500
     13 N13       -11.4089   -1.9687   54.2098 N.3     1  ZINC000508571532   -0.4600
     14 C14       -12.7022   -1.6478   53.5913 C.3     1  ZINC000508571532    0.0300
     15 C15       -11.3267   -3.3959   54.5476 C.3     1  ZINC000508571532    0.1100
     16 C16       -12.4401   -3.7521   55.4987 C.ar    1  ZINC000508571532   -0.0900
     17 C17       -13.4288   -4.6332   55.1065 C.ar    1  ZINC000508571532   -0.0600
     18 C18       -14.4510   -4.9600   55.9786 C.ar    1  ZINC000508571532   -0.1300
     19 C19       -14.4859   -4.4064   57.2449 C.ar    1  ZINC000508571532   -0.0700
     20 C20       -13.4990   -3.5248   57.6421 C.ar    1  ZINC000508571532   -0.1900
     21 C21       -12.4697   -3.1994   56.7711 C.ar    1  ZINC000508571532    0.1100
     22 O22       -11.4978   -2.3326   57.1594 O.3     1  ZINC000508571532   -0.3100
     23 C23       -10.6492   -2.7474   58.2317 C.3     1  ZINC000508571532    0.6000
     24 F24       -11.3224   -2.5881   59.4478 F       1  ZINC000508571532   -0.1600
     25 F25       -10.3064   -4.0930   58.0613 F       1  ZINC000508571532   -0.1300
     26 F26        -9.4880   -1.9673   58.2359 F       1  ZINC000508571532   -0.1600
     27 N27        -9.6114   -0.4547   53.4976 N.pl3   1  ZINC000508571532   -0.4500
     28 C28        -9.7588    0.6082   54.4948 C.3     1  ZINC000508571532    0.0800
     29 C29        -5.6171    2.0828   51.2919 C.ar    1  ZINC000508571532   -0.1700
     30 C30        -4.5590    2.8913   50.9249 C.ar    1  ZINC000508571532   -0.1100
     31 H31        -0.6267    3.2854   48.8935 H       1  ZINC000508571532    0.1000
     32 H32        -0.9507    1.7404   49.7159 H       1  ZINC000508571532    0.0600
     33 H33        -1.7826    2.1284   48.1909 H       1  ZINC000508571532    0.0600
     34 H34        -2.6464    0.5939   49.3453 H       1  ZINC000508571532    0.1400
     35 H35        -4.5289   -0.8482   50.0048 H       1  ZINC000508571532    0.1300
     36 H36        -7.1892    0.8640   53.0923 H       1  ZINC000508571532    0.0800
     37 H37        -8.1059    1.3659   51.6515 H       1  ZINC000508571532    0.1000
     38 H38       -12.8563   -2.2845   52.7202 H       1  ZINC000508571532    0.0600
     39 H39       -13.5019   -1.8182   54.3120 H       1  ZINC000508571532    0.0800
     40 H40       -12.7079   -0.6024   53.2827 H       1  ZINC000508571532    0.0700
     41 H41       -11.4211   -3.9904   53.6388 H       1  ZINC000508571532    0.0700
     42 H42       -10.3660   -3.6029   55.0190 H       1  ZINC000508571532    0.0900
     43 H43       -13.4037   -5.0670   54.1178 H       1  ZINC000508571532    0.1400
     44 H44       -15.2235   -5.6486   55.6698 H       1  ZINC000508571532    0.1300
     45 H45       -15.2854   -4.6629   57.9240 H       1  ZINC000508571532    0.1400
     46 H46       -13.5269   -3.0923   58.6314 H       1  ZINC000508571532    0.1400
     47 H47        -9.0706    0.4293   55.3209 H       1  ZINC000508571532    0.0900
     48 H48        -9.5332    1.5709   54.0359 H       1  ZINC000508571532    0.0900
     49 H49       -10.7823    0.6154   54.8696 H       1  ZINC000508571532    0.1000
     50 H50        -6.4508    2.4991   51.8378 H       1  ZINC000508571532    0.1400
     51 H51        -4.5665    3.9403   51.1817 H       1  ZINC000508571532    0.1400
@<TRIPOS>BOND
     1     1     2    1
     2     1    31    1
     3     1    32    1
     4     1    33    1
     5     2     3    1
     6     3    30   ar
     7     3     4   ar
     8     4     5   ar
     9     4    34    1
    10     5     6   ar
    11     5    35    1
    12     6     7    1
    13     6    29   ar
    14     7     8    1
    15     8     9    1
    16     8    36    1
    17     8    37    1
    18     9    27    1
    19     9    10    2
    20    10    11    1
    21    11    12    2
    22    12    13    1
    23    12    27    1
    24    13    14    1
    25    13    15    1
    26    14    38    1
    27    14    39    1
    28    14    40    1
    29    15    16    1
    30    15    41    1
    31    15    42    1
    32    16    21   ar
    33    16    17   ar
    34    17    18   ar
    35    17    43    1
    36    18    19   ar
    37    18    44    1
    38    19    20   ar
    39    19    45    1
    40    20    21   ar
    41    20    46    1
    42    21    22    1
    43    22    23    1
    44    23    24    1
    45    23    25    1
    46    23    26    1
    47    27    28    1
    48    28    47    1
    49    28    48    1
    50    28    49    1
    51    29    30   ar
    52    29    50    1
    53    30    51    1
@<TRIPOS>SUBSTRUCTURE
     1 ZINC000508571532        1 TEMP              0 ****  ****    0 ROOT


##########                                Name:    ZINC001191196975
##########                DOCK_Rotatable_Bonds:                  14
##########                         Heavy_Atoms:                  24
##########                    Molecular_Weight:             339.438
##########                DOCK_Rotatable_Bonds:                  14
##########                       Formal_Charge:          0.00999969
##########                     HBond_Acceptors:                   8
##########                        HBond_Donors:                   4
##########                         Heavy_Atoms:                  24
##########                          Grid_Score:          -42.265522
##########                     Grid_vdw_energy:          -38.797432
##########                      Grid_es_energy:           -3.468091
##########           Internal_energy_repulsive:           16.915409

@<TRIPOS>MOLECULE
ZINC001191196975
 53 53 1 0 0
SMALL
USER_CHARGES


@<TRIPOS>ATOM
      1 C1         -6.6746    2.0496   50.8923 C.2     1  ZINC001191196975   -0.1600
      2 C2         -7.0784    0.8305   51.1503 C.2     1  ZINC001191196975   -0.1800
      3 C3         -7.8301    0.5392   52.4236 C.3     1  ZINC001191196975    0.1500
      4 N4         -8.5698   -0.7169   52.2777 N.am    1  ZINC001191196975   -0.7300
      5 C5         -9.8698   -0.7779   52.6278 C.2     1  ZINC001191196975    0.5100
      6 O6        -10.4277    0.2074   53.0622 O.2     1  ZINC001191196975   -0.5200
      7 C7        -10.6302   -2.0705   52.4793 C.3     1  ZINC001191196975    0.0300
      8 N8        -12.0272   -1.8661   52.8853 N.3     1  ZINC001191196975   -0.5100
      9 C9        -12.8828   -1.6127   51.7183 C.3     1  ZINC001191196975    0.0200
     10 C10       -12.5223   -3.0102   53.6624 C.3     1  ZINC001191196975    0.0700
     11 H11       -12.4239   -3.9364   53.0963 H       1  ZINC001191196975    0.0600
     12 C12       -13.9909   -2.7850   54.1096 C.3     1  ZINC001191196975   -0.1200
     13 C13       -14.0988   -3.6441   55.3870 C.3     1  ZINC001191196975    0.1000
     14 N14       -12.7352   -3.8317   55.9035 N.am    1  ZINC001191196975   -0.6200
     15 C15       -12.4007   -4.5442   56.9975 C.2     1  ZINC001191196975    0.5300
     16 O16       -13.2619   -5.0991   57.6465 O.2     1  ZINC001191196975   -0.5400
     17 C17       -10.9565   -4.6514   57.4143 C.3     1  ZINC001191196975   -0.1300
     18 C18       -10.5623   -3.4074   58.2130 C.3     1  ZINC001191196975   -0.1000
     19 C19        -9.3854   -3.7426   59.1313 C.3     1  ZINC001191196975   -0.1300
     20 C20        -9.4296   -2.8411   60.3667 C.3     1  ZINC001191196975    0.1400
     21 N21        -9.3629   -1.4381   59.9503 N.am    1  ZINC001191196975   -0.7500
     22 C22       -10.4226   -0.6275   60.1410 C.2     1  ZINC001191196975    0.7000
     23 N23       -10.3606    0.6636   59.7593 N.am    1  ZINC001191196975   -0.8700
     24 O24       -11.4344   -1.0609   60.6575 O.2     1  ZINC001191196975   -0.5900
     25 C25       -11.7934   -3.1126   55.0255 C.3     1  ZINC001191196975    0.1100
     26 H26        -6.8802    2.8460   51.5923 H       1  ZINC001191196975    0.1000
     27 H27        -6.1322    2.2575   49.9819 H       1  ZINC001191196975    0.1000
     28 H28        -6.8729    0.0340   50.4504 H       1  ZINC001191196975    0.1200
     29 H29        -7.1246    0.4515   53.2499 H       1  ZINC001191196975    0.0800
     30 H30        -8.5286    1.3508   52.6269 H       1  ZINC001191196975    0.0700
     31 H31        -8.1238   -1.5046   51.9292 H       1  ZINC001191196975    0.4000
     32 H32       -10.5978   -2.3938   51.4389 H       1  ZINC001191196975    0.0700
     33 H33       -10.1762   -2.8338   53.1113 H       1  ZINC001191196975    0.1100
     34 H34       -12.7525   -2.4142   50.9912 H       1  ZINC001191196975    0.0200
     35 H35       -13.9254   -1.5742   52.0338 H       1  ZINC001191196975    0.0700
     36 H36       -12.6053   -0.6614   51.2641 H       1  ZINC001191196975    0.0900
     37 H37       -14.1683   -1.7336   54.3357 H       1  ZINC001191196975    0.0900
     38 H38       -14.6848   -3.1389   53.3470 H       1  ZINC001191196975    0.0800
     39 H39       -14.7089   -3.1295   56.1293 H       1  ZINC001191196975    0.0700
     40 H40       -14.5407   -4.6113   55.1471 H       1  ZINC001191196975    0.0700
     41 H41       -10.8220   -5.5384   58.0334 H       1  ZINC001191196975    0.0900
     42 H42       -10.3272   -4.7284   56.5277 H       1  ZINC001191196975    0.0900
     43 H43       -10.2725   -2.6118   57.5267 H       1  ZINC001191196975    0.0800
     44 H44       -11.4099   -3.0779   58.8141 H       1  ZINC001191196975    0.0800
     45 H45        -9.4513   -4.7858   59.4402 H       1  ZINC001191196975    0.0700
     46 H46        -8.4496   -3.5805   58.5965 H       1  ZINC001191196975    0.0700
     47 H47       -10.3581   -3.0150   60.9104 H       1  ZINC001191196975    0.0700
     48 H48        -8.5819   -3.0688   61.0131 H       1  ZINC001191196975    0.0700
     49 H49        -8.5561   -1.0926   59.5372 H       1  ZINC001191196975    0.4000
     50 H50       -11.1229    1.2474   59.8977 H       1  ZINC001191196975    0.4000
     51 H51        -9.5538    1.0090   59.3462 H       1  ZINC001191196975    0.4200
     52 H52       -10.8669   -3.6769   54.9200 H       1  ZINC001191196975    0.0800
     53 H53       -11.5897   -2.1178   55.4217 H       1  ZINC001191196975    0.0800
@<TRIPOS>BOND
     1     1     2    2
     2     1    26    1
     3     1    27    1
     4     2     3    1
     5     2    28    1
     6     3     4    1
     7     3    29    1
     8     3    30    1
     9     4     5   am
    10     4    31    1
    11     5     6    2
    12     5     7    1
    13     7     8    1
    14     7    32    1
    15     7    33    1
    16     8     9    1
    17     8    10    1
    18     9    34    1
    19     9    35    1
    20     9    36    1
    21    10    11    1
    22    10    25    1
    23    10    12    1
    24    12    13    1
    25    12    37    1
    26    12    38    1
    27    13    14    1
    28    13    39    1
    29    13    40    1
    30    14    15   am
    31    14    25    1
    32    15    16    2
    33    15    17    1
    34    17    18    1
    35    17    41    1
    36    17    42    1
    37    18    19    1
    38    18    43    1
    39    18    44    1
    40    19    20    1
    41    19    45    1
    42    19    46    1
    43    20    21    1
    44    20    47    1
    45    20    48    1
    46    21    22   am
    47    21    49    1
    48    22    23   am
    49    22    24    2
    50    23    50    1
    51    23    51    1
    52    25    52    1
    53    25    53    1
@<TRIPOS>SUBSTRUCTURE
     1 ZINC001191196975        1 TEMP              0 ****  ****    0 ROOT


##########                                Name:    ZINC001362587626
##########                DOCK_Rotatable_Bonds:                   9
##########                         Heavy_Atoms:                  25
##########                    Molecular_Weight:             346.346
##########                DOCK_Rotatable_Bonds:                   9
##########                       Formal_Charge:        -4.02331e-07
##########                     HBond_Acceptors:                  10
##########                        HBond_Donors:                   2
##########                         Heavy_Atoms:                  25
##########                          Grid_Score:          -42.106777
##########                     Grid_vdw_energy:          -37.571449
##########                      Grid_es_energy:           -4.535327
##########           Internal_energy_repulsive:            8.687425

@<TRIPOS>MOLECULE
ZINC001362587626
 43 45 1 0 0
SMALL
USER_CHARGES


@<TRIPOS>ATOM
      1 C1        -12.5226    0.2415   54.3436 C.3     1  ZINC001362587626   -0.1600
      2 C2        -11.2703   -0.6267   54.4807 C.3     1  ZINC001362587626    0.1300
      3 H3        -11.5477   -1.6784   54.4092 H       1  ZINC001362587626    0.1200
      4 N4        -10.6413   -0.3748   55.7797 N.am    1  ZINC001362587626   -0.7100
      5 C5        -11.0732   -1.0295   56.8757 C.2     1  ZINC001362587626    0.5100
      6 O6        -11.9814   -1.8283   56.7864 O.2     1  ZINC001362587626   -0.5000
      7 C7        -10.4274   -0.7691   58.2123 C.3     1  ZINC001362587626    0.1000
      8 N8         -9.8133   -2.0039   58.7067 N.pl3   1  ZINC001362587626   -0.3100
      9 C9         -8.6633   -2.1031   59.3991 C.2     1  ZINC001362587626    0.1600
     10 N10        -8.4796   -3.3779   59.6425 N.2     1  ZINC001362587626   -0.3000
     11 N11        -9.4653   -4.0276   59.1266 N.2     1  ZINC001362587626   -0.0700
     12 N12       -10.2759   -3.1999   58.5651 N.2     1  ZINC001362587626   -0.0700
     13 C13       -10.3004   -0.2869   53.3787 C.2     1  ZINC001362587626    0.5100
     14 O14       -10.5532   -0.5930   52.2325 O.2     1  ZINC001362587626   -0.5200
     15 N15        -9.1520    0.3573   53.6664 N.am    1  ZINC001362587626   -0.6600
     16 C16        -8.2503    0.6732   52.6417 C.ar    1  ZINC001362587626    0.1000
     17 C17        -8.2095    1.9613   52.1251 C.ar    1  ZINC001362587626   -0.1000
     18 C18        -7.3202    2.2722   51.1155 C.ar    1  ZINC001362587626   -0.1900
     19 C19        -6.4680    1.2977   50.6170 C.ar    1  ZINC001362587626    0.1200
     20 O20        -5.5929    1.6043   49.6225 O.3     1  ZINC001362587626   -0.2800
     21 C21        -4.2021    1.5710   49.9491 C.3     1  ZINC001362587626    0.0100
     22 C22        -3.3780    2.6839   49.2746 C.3     1  ZINC001362587626    0.0200
     23 O23        -3.6474    3.4497   50.4662 O.3     1  ZINC001362587626   -0.3700
     24 C24        -3.8575    2.2750   51.2752 C.3     1  ZINC001362587626    0.0400
     25 C25        -6.5078    0.0106   51.1330 C.ar    1  ZINC001362587626   -0.1300
     26 C26        -7.3930   -0.3002   52.1463 C.ar    1  ZINC001362587626   -0.0800
     27 H27       -12.2453    1.2932   54.4152 H       1  ZINC001362587626    0.0700
     28 H28       -12.9906    0.0541   53.3771 H       1  ZINC001362587626    0.0800
     29 H29       -13.2242   -0.0043   55.1407 H       1  ZINC001362587626    0.0800
     30 H30        -9.9142    0.2631   55.8509 H       1  ZINC001362587626    0.4100
     31 H31        -9.6617   -0.0012   58.1024 H       1  ZINC001362587626    0.1500
     32 H32       -11.1830   -0.4301   58.9210 H       1  ZINC001362587626    0.1400
     33 H33        -8.0170   -1.2903   59.6959 H       1  ZINC001362587626    0.2400
     34 H34        -8.9498    0.6022   54.5829 H       1  ZINC001362587626    0.4100
     35 H35        -8.8734    2.7199   52.5125 H       1  ZINC001362587626    0.1300
     36 H36        -7.2885    3.2741   50.7134 H       1  ZINC001362587626    0.1400
     37 H37        -3.7655    0.5771   49.8520 H       1  ZINC001362587626    0.0900
     38 H38        -2.3258    2.4335   49.1398 H       1  ZINC001362587626    0.1000
     39 H39        -3.8398    3.0910   48.3751 H       1  ZINC001362587626    0.1000
     40 H40        -4.6995    2.3576   51.9624 H       1  ZINC001362587626    0.1000
     41 H41        -2.9517    1.8996   51.7514 H       1  ZINC001362587626    0.1000
     42 H42        -5.8440   -0.7476   50.7445 H       1  ZINC001362587626    0.1400
     43 H43        -7.4236   -1.3022   52.5483 H       1  ZINC001362587626    0.1500
@<TRIPOS>BOND
     1     1     2    1
     2     1    27    1
     3     1    28    1
     4     1    29    1
     5     2     3    1
     6     2     4    1
     7     2    13    1
     8     4     5   am
     9     4    30    1
    10     5     6    2
    11     5     7    1
    12     7     8    1
    13     7    31    1
    14     7    32    1
    15     8    12    1
    16     8     9    1
    17     9    10    2
    18     9    33    1
    19    10    11    1
    20    11    12    2
    21    13    14    2
    22    13    15   am
    23    15    16    1
    24    15    34    1
    25    16    26   ar
    26    16    17   ar
    27    17    18   ar
    28    17    35    1
    29    18    19   ar
    30    18    36    1
    31    19    20    1
    32    19    25   ar
    33    20    21    1
    34    21    24    1
    35    21    22    1
    36    21    37    1
    37    22    23    1
    38    22    38    1
    39    22    39    1
    40    23    24    1
    41    24    40    1
    42    24    41    1
    43    25    26   ar
    44    25    42    1
    45    26    43    1
@<TRIPOS>SUBSTRUCTURE
     1 ZINC001362587626        1 TEMP              0 ****  ****    0 ROOT


##########                                Name:    ZINC000051488227
##########                DOCK_Rotatable_Bonds:                   8
##########                         Heavy_Atoms:                  30
##########                    Molecular_Weight:             403.478
##########                DOCK_Rotatable_Bonds:                   8
##########                       Formal_Charge:           0.0199996
##########                     HBond_Acceptors:                   5
##########                        HBond_Donors:                   0
##########                         Heavy_Atoms:                  30
##########                          Grid_Score:          -42.095280
##########                     Grid_vdw_energy:          -41.002689
##########                      Grid_es_energy:           -1.092590
##########           Internal_energy_repulsive:           20.288511

@<TRIPOS>MOLECULE
ZINC000051488227
 55 58 1 0 0
SMALL
USER_CHARGES


@<TRIPOS>ATOM
      1 O1        -13.3468   -0.6696   56.9968 O.2     1  ZINC000051488227   -0.5000
      2 C2        -12.6559   -1.6143   56.6964 C.2     1  ZINC000051488227    0.4800
      3 O3        -11.8473   -1.5414   55.6274 O.3     1  ZINC000051488227   -0.3400
      4 C4        -11.6467   -0.2284   55.0410 C.3     1  ZINC000051488227    0.1100
      5 C5        -10.4033   -0.2431   54.1896 C.ar    1  ZINC000051488227   -0.1400
      6 C6         -9.4160    0.7031   54.3935 C.ar    1  ZINC000051488227   -0.0500
      7 C7         -8.2753    0.6918   53.6144 C.ar    1  ZINC000051488227   -0.1500
      8 C8         -8.1206   -0.2705   52.6270 C.ar    1  ZINC000051488227    0.1500
      9 O9         -6.9991   -0.2841   51.8596 O.3     1  ZINC000051488227   -0.3100
     10 C10        -6.7891    0.8364   50.9979 C.3     1  ZINC000051488227    0.1100
     11 C11        -5.3303    1.2145   51.0120 C.ar    1  ZINC000051488227    0.1200
     12 C12        -4.8778    2.1564   51.9160 C.ar    1  ZINC000051488227   -0.1500
     13 C13        -3.5335    2.4969   51.9211 C.ar    1  ZINC000051488227   -0.0700
     14 C14        -2.6917    1.8741   51.0126 C.ar    1  ZINC000051488227   -0.1700
     15 C15        -3.2166    0.9411   50.1381 C.ar    1  ZINC000051488227    0.1100
     16 N16        -4.4996    0.6384   50.1651 N.ar    1  ZINC000051488227   -0.4800
     17 C17        -9.1125   -1.2192   52.4249 C.ar    1  ZINC000051488227   -0.2100
     18 C18       -10.2492   -1.2064   53.2098 C.ar    1  ZINC000051488227   -0.0500
     19 C19       -12.6973   -2.8720   57.5256 C.3     1  ZINC000051488227    0.0000
     20 C20       -11.5227   -2.8922   58.4695 C.ar    1  ZINC000051488227   -0.0900
     21 C21       -10.5930   -3.9124   58.3941 C.ar    1  ZINC000051488227   -0.1100
     22 C22        -9.5155   -3.9309   59.2599 C.ar    1  ZINC000051488227   -0.1200
     23 C23        -9.3676   -2.9291   60.2009 C.ar    1  ZINC000051488227   -0.1100
     24 C24       -10.2969   -1.9085   60.2757 C.ar    1  ZINC000051488227   -0.1200
     25 C25       -11.3720   -1.8876   59.4070 C.ar    1  ZINC000051488227   -0.1000
     26 C26       -14.0019   -2.9146   58.3271 C.3     1  ZINC000051488227   -0.1400
     27 C27       -15.1856   -2.9720   57.3579 C.3     1  ZINC000051488227    0.0600
     28 O28       -15.0509   -4.1151   56.5109 O.3     1  ZINC000051488227   -0.3800
     29 C29       -13.8725   -4.1067   55.7025 C.3     1  ZINC000051488227    0.0500
     30 C30       -12.6361   -4.0949   56.6052 C.3     1  ZINC000051488227   -0.1400
     31 H31       -12.5070    0.0290   54.4232 H       1  ZINC000051488227    0.0800
     32 H32       -11.5350    0.5107   55.8344 H       1  ZINC000051488227    0.0800
     33 H33        -9.5370    1.4521   55.1622 H       1  ZINC000051488227    0.1300
     34 H34        -7.5047    1.4315   53.7735 H       1  ZINC000051488227    0.1400
     35 H35        -7.0869    0.5747   49.9825 H       1  ZINC000051488227    0.0900
     36 H36        -7.3863    1.6793   51.3459 H       1  ZINC000051488227    0.0900
     37 H37        -5.5623    2.6220   52.6096 H       1  ZINC000051488227    0.1400
     38 H38        -3.1515    3.2300   52.6161 H       1  ZINC000051488227    0.1400
     39 H39        -1.6392    2.1151   50.9881 H       1  ZINC000051488227    0.1400
     40 H40        -2.5675    0.4517   49.4270 H       1  ZINC000051488227    0.1600
     41 H41        -8.9946   -1.9690   51.6566 H       1  ZINC000051488227    0.1300
     42 H42       -11.0215   -1.9449   53.0530 H       1  ZINC000051488227    0.1300
     43 H43       -10.7085   -4.6950   57.6589 H       1  ZINC000051488227    0.1300
     44 H44        -8.7895   -4.7283   59.2015 H       1  ZINC000051488227    0.1300
     45 H45        -8.5262   -2.9441   60.8779 H       1  ZINC000051488227    0.1200
     46 H46       -10.1815   -1.1260   61.0111 H       1  ZINC000051488227    0.1200
     47 H47       -12.0980   -1.0902   59.4655 H       1  ZINC000051488227    0.1300
     48 H48       -14.0094   -3.7991   58.9640 H       1  ZINC000051488227    0.0900
     49 H49       -14.0797   -2.0195   58.9443 H       1  ZINC000051488227    0.0900
     50 H50       -16.1147   -3.0457   57.9228 H       1  ZINC000051488227    0.1000
     51 H51       -15.2009   -2.0681   56.7489 H       1  ZINC000051488227    0.0500
     52 H52       -13.8559   -4.9978   55.0749 H       1  ZINC000051488227    0.1000
     53 H53       -13.8706   -3.2177   55.0718 H       1  ZINC000051488227    0.0700
     54 H54       -11.7371   -4.0439   55.9910 H       1  ZINC000051488227    0.0900
     55 H55       -12.6161   -5.0032   57.2074 H       1  ZINC000051488227    0.0900
@<TRIPOS>BOND
     1     1     2    2
     2     2     3    1
     3     2    19    1
     4     3     4    1
     5     4     5    1
     6     4    31    1
     7     4    32    1
     8     5    18   ar
     9     5     6   ar
    10     6     7   ar
    11     6    33    1
    12     7     8   ar
    13     7    34    1
    14     8     9    1
    15     8    17   ar
    16     9    10    1
    17    10    11    1
    18    10    35    1
    19    10    36    1
    20    11    16   ar
    21    11    12   ar
    22    12    13   ar
    23    12    37    1
    24    13    14   ar
    25    13    38    1
    26    14    15   ar
    27    14    39    1
    28    15    16   ar
    29    15    40    1
    30    17    18   ar
    31    17    41    1
    32    18    42    1
    33    19    30    1
    34    19    20    1
    35    19    26    1
    36    20    25   ar
    37    20    21   ar
    38    21    22   ar
    39    21    43    1
    40    22    23   ar
    41    22    44    1
    42    23    24   ar
    43    23    45    1
    44    24    25   ar
    45    24    46    1
    46    25    47    1
    47    26    27    1
    48    26    48    1
    49    26    49    1
    50    27    28    1
    51    27    50    1
    52    27    51    1
    53    28    29    1
    54    29    30    1
    55    29    52    1
    56    29    53    1
    57    30    54    1
    58    30    55    1
@<TRIPOS>SUBSTRUCTURE
     1 ZINC000051488227        1 TEMP              0 ****  ****    0 ROOT


##########                                Name:    ZINC001596273020
##########                DOCK_Rotatable_Bonds:                  11
##########                         Heavy_Atoms:                  25
##########                    Molecular_Weight:             355.478
##########                DOCK_Rotatable_Bonds:                  11
##########                       Formal_Charge:          -0.0499996
##########                     HBond_Acceptors:                   7
##########                        HBond_Donors:                   2
##########                         Heavy_Atoms:                  25
##########                          Grid_Score:          -41.927628
##########                     Grid_vdw_energy:          -33.847672
##########                      Grid_es_energy:           -8.079957
##########           Internal_energy_repulsive:           22.808939

@<TRIPOS>MOLECULE
ZINC001596273020
 58 59 1 0 0
SMALL
USER_CHARGES


@<TRIPOS>ATOM
      1 C1         -9.0082    2.5081   53.2231 C.3     1  ZINC001596273020   -0.1900
      2 C2         -7.7690    1.7661   53.7277 C.3     1  ZINC001596273020   -0.0200
      3 N3         -7.3495    0.7762   52.7267 N.4     1  ZINC001596273020   -0.3900
      4 H4         -6.5144    0.3084   53.0457 H       1  ZINC001596273020    0.4300
      5 C5         -8.4207   -0.2107   52.5351 C.3     1  ZINC001596273020   -0.0100
      6 C6         -7.8335   -1.4910   51.9379 C.3     1  ZINC001596273020   -0.1900
      7 C7         -7.0746    1.4542   51.4529 C.3     1  ZINC001596273020   -0.0100
      8 C8         -5.8218    0.8514   50.8142 C.3     1  ZINC001596273020    0.0300
      9 O9         -4.9085    1.8977   50.4775 O.3     1  ZINC001596273020   -0.3900
     10 C10        -3.7580    1.4547   49.7549 C.3     1  ZINC001596273020    0.0500
     11 C11        -2.9224    2.6654   49.3345 C.3     1  ZINC001596273020    0.1400
     12 N12        -1.5291    2.2549   49.1441 N.am    1  ZINC001596273020   -0.7500
     13 C13        -0.7375    2.0401   50.2136 C.2     1  ZINC001596273020    0.7200
     14 O14        -1.1795    2.1886   51.3366 O.2     1  ZINC001596273020   -0.6000
     15 N15         0.5438    1.6609   50.0384 N.am    1  ZINC001596273020   -0.6300
     16 C16         1.2588    1.4380   48.7574 C.3     1  ZINC001596273020    0.1100
     17 C17         2.6604    2.0655   49.0077 C.3     1  ZINC001596273020   -0.0800
     18 H18         3.4166    1.5099   48.4531 H       1  ZINC001596273020    0.1200
     19 C19         2.6135    3.4978   48.5141 C.3     1  ZINC001596273020   -0.1000
     20 C20         3.5526    4.4187   49.2805 C.3     1  ZINC001596273020   -0.1200
     21 C21         3.1585    4.3731   50.7628 C.3     1  ZINC001596273020   -0.1200
     22 C22         3.5015    2.9830   51.2887 C.3     1  ZINC001596273020   -0.0800
     23 C23         2.8802    1.8835   50.4933 C.3     1  ZINC001596273020   -0.1400
     24 C24         3.8175    0.7099   50.6157 C.2     1  ZINC001596273020    0.5000
     25 O25         4.8094    0.6456   49.9096 O.co2   1  ZINC001596273020   -0.6900
     26 O26         3.5839   -0.1756   51.4207 O.co2   1  ZINC001596273020   -0.6900
     27 C27         1.5587    1.3784   51.0825 C.3     1  ZINC001596273020    0.1600
     28 H28        -8.7440    3.1046   52.3499 H       1  ZINC001596273020    0.0800
     29 H29        -9.7781    1.7863   52.9506 H       1  ZINC001596273020    0.0800
     30 H30        -9.3852    3.1622   54.0094 H       1  ZINC001596273020    0.1000
     31 H31        -6.9615    2.4789   53.8945 H       1  ZINC001596273020    0.1300
     32 H32        -8.0051    1.2590   54.6634 H       1  ZINC001596273020    0.1300
     33 H33        -8.8828   -0.4365   53.4960 H       1  ZINC001596273020    0.1300
     34 H34        -9.1716    0.1952   51.8572 H       1  ZINC001596273020    0.1300
     35 H35        -7.4700   -1.2887   50.9304 H       1  ZINC001596273020    0.0800
     36 H36        -7.0076   -1.8364   52.5597 H       1  ZINC001596273020    0.0800
     37 H37        -8.6048   -2.2603   51.8982 H       1  ZINC001596273020    0.1000
     38 H38        -7.9233    1.3240   50.7814 H       1  ZINC001596273020    0.1400
     39 H39        -6.9145    2.5171   51.6342 H       1  ZINC001596273020    0.1400
     40 H40        -5.3477    0.1681   51.5186 H       1  ZINC001596273020    0.1000
     41 H41        -6.0999    0.3076   49.9115 H       1  ZINC001596273020    0.0700
     42 H42        -3.1587    0.8026   50.3903 H       1  ZINC001596273020    0.0700
     43 H43        -4.0750    0.9064   48.8678 H       1  ZINC001596273020    0.0700
     44 H44        -3.3129    3.0699   48.4007 H       1  ZINC001596273020    0.0900
     45 H45        -2.9733    3.4291   50.1106 H       1  ZINC001596273020    0.0700
     46 H46        -1.1761    2.1375   48.2482 H       1  ZINC001596273020    0.3900
     47 H47         1.3476    0.3720   48.5481 H       1  ZINC001596273020    0.0700
     48 H48         0.7500    1.9493   47.9402 H       1  ZINC001596273020    0.0600
     49 H49         2.8877    3.5151   47.4593 H       1  ZINC001596273020    0.0500
     50 H50         1.5945    3.8712   48.6161 H       1  ZINC001596273020    0.0400
     51 H51         4.5809    4.0773   49.1621 H       1  ZINC001596273020    0.0700
     52 H52         3.4567    5.4375   48.9051 H       1  ZINC001596273020    0.0500
     53 H53         3.7177    5.1267   51.3173 H       1  ZINC001596273020    0.0600
     54 H54         2.0887    4.5542   50.8667 H       1  ZINC001596273020    0.0500
     55 H55         4.5845    2.8600   51.2720 H       1  ZINC001596273020    0.0600
     56 H56         3.1590    2.9050   52.3206 H       1  ZINC001596273020    0.0600
     57 H57         1.3230    1.9146   52.0017 H       1  ZINC001596273020    0.0700
     58 H58         1.6118    0.3059   51.2702 H       1  ZINC001596273020    0.0700
@<TRIPOS>BOND
     1     1     2    1
     2     1    28    1
     3     1    29    1
     4     1    30    1
     5     2     3    1
     6     2    31    1
     7     2    32    1
     8     3     4    1
     9     3     5    1
    10     3     7    1
    11     5     6    1
    12     5    33    1
    13     5    34    1
    14     6    35    1
    15     6    36    1
    16     6    37    1
    17     7     8    1
    18     7    38    1
    19     7    39    1
    20     8     9    1
    21     8    40    1
    22     8    41    1
    23     9    10    1
    24    10    11    1
    25    10    42    1
    26    10    43    1
    27    11    12    1
    28    11    44    1
    29    11    45    1
    30    12    13   am
    31    12    46    1
    32    13    14    2
    33    13    15   am
    34    15    27    1
    35    15    16    1
    36    16    17    1
    37    16    47    1
    38    16    48    1
    39    17    18    1
    40    17    23    1
    41    17    19    1
    42    19    20    1
    43    19    49    1
    44    19    50    1
    45    20    21    1
    46    20    51    1
    47    20    52    1
    48    21    22    1
    49    21    53    1
    50    21    54    1
    51    22    23    1
    52    22    55    1
    53    22    56    1
    54    23    24    1
    55    23    27    1
    56    24    25   ar
    57    24    26   ar
    58    27    57    1
    59    27    58    1
@<TRIPOS>SUBSTRUCTURE
     1 ZINC001596273020        1 TEMP              0 ****  ****    0 ROOT


##########                                Name:    ZINC000045927156
##########                DOCK_Rotatable_Bonds:                   7
##########                         Heavy_Atoms:                  30
##########                    Molecular_Weight:             418.522
##########                DOCK_Rotatable_Bonds:                   7
##########                       Formal_Charge:           0.0200001
##########                     HBond_Acceptors:                   8
##########                        HBond_Donors:                   1
##########                         Heavy_Atoms:                  30
##########                          Grid_Score:          -41.612263
##########                     Grid_vdw_energy:          -40.739170
##########                      Grid_es_energy:           -0.873093
##########           Internal_energy_repulsive:           16.227316

@<TRIPOS>MOLECULE
ZINC000045927156
 52 56 1 0 0
SMALL
USER_CHARGES


@<TRIPOS>ATOM
      1 O1        -10.6098   -3.1771   54.6169 O.2     1  ZINC000045927156   -0.5800
      2 C2        -11.6583   -2.6167   54.3619 C.2     1  ZINC000045927156    0.7300
      3 N3        -11.7059   -1.6873   53.3870 N.am    1  ZINC000045927156   -0.7400
      4 C4        -10.4931   -1.3482   52.6384 C.3     1  ZINC000045927156    0.1700
      5 C5         -9.7958   -0.1925   53.3086 C.ar    1  ZINC000045927156   -0.0700
      6 C6        -10.4645    0.5654   54.2513 C.ar    1  ZINC000045927156   -0.1000
      7 C7         -9.8249    1.6256   54.8662 C.ar    1  ZINC000045927156   -0.1100
      8 C8         -8.5165    1.9275   54.5385 C.ar    1  ZINC000045927156   -0.1100
      9 C9         -7.8473    1.1688   53.5961 C.ar    1  ZINC000045927156   -0.1000
     10 C10        -8.4853    0.1062   52.9846 C.ar    1  ZINC000045927156   -0.1000
     11 C11        -7.7558   -0.7208   51.9574 C.3     1  ZINC000045927156    0.1700
     12 N12        -6.9533    0.1582   51.1033 N.pl3   1  ZINC000045927156   -0.3800
     13 C13        -7.2662    1.4052   50.7107 C.2     1  ZINC000045927156    0.2500
     14 N14        -6.2924    1.8506   49.9589 N.2     1  ZINC000045927156   -0.5400
     15 C15        -5.3445    0.9206   49.8492 C.2     1  ZINC000045927156    0.2000
     16 N16        -5.7012   -0.1321   50.5372 N.2     1  ZINC000045927156   -0.3100
     17 N17       -12.7739   -2.9287   55.0506 N.am    1  ZINC000045927156   -0.6200
     18 C18       -14.1066   -2.3333   54.8430 C.3     1  ZINC000045927156    0.1000
     19 C19       -15.1023   -3.3945   55.3740 C.3     1  ZINC000045927156   -0.1300
     20 C20       -14.3343   -3.9563   56.5996 C.3     1  ZINC000045927156   -0.1200
     21 C21       -12.8652   -3.9239   56.1290 C.3     1  ZINC000045927156    0.2300
     22 H22       -12.5727   -4.9065   55.7589 H       1  ZINC000045927156    0.1000
     23 C23       -11.9696   -3.5194   57.2716 C.2     1  ZINC000045927156    0.0900
     24 N24       -11.9777   -2.3625   57.8174 N.2     1  ZINC000045927156   -0.4500
     25 C25       -11.1210   -2.1399   58.8324 C.ar    1  ZINC000045927156    0.0800
     26 C26       -10.9205   -0.9768   59.6024 C.ar    1  ZINC000045927156   -0.0700
     27 C27        -9.9898   -0.9597   60.5968 C.ar    1  ZINC000045927156   -0.1100
     28 C28        -9.2233   -2.0833   60.8713 C.ar    1  ZINC000045927156   -0.1000
     29 C29        -9.3975   -3.2339   60.1353 C.ar    1  ZINC000045927156   -0.0700
     30 C30       -10.3446   -3.2697   59.1144 C.ar    1  ZINC000045927156   -0.1800
     31 S31       -10.8233   -4.5497   58.0040 S.3     1  ZINC000045927156    0.1200
     32 H32       -12.5432   -1.2432   53.1809 H       1  ZINC000045927156    0.3900
     33 H33        -9.8270   -2.2107   52.6157 H       1  ZINC000045927156    0.1000
     34 H34       -10.7611   -1.0693   51.6194 H       1  ZINC000045927156    0.0700
     35 H35       -11.4869    0.3295   54.5074 H       1  ZINC000045927156    0.1300
     36 H36       -10.3476    2.2183   55.6023 H       1  ZINC000045927156    0.1300
     37 H37        -8.0171    2.7561   55.0183 H       1  ZINC000045927156    0.1300
     38 H38        -6.8251    1.4048   53.3398 H       1  ZINC000045927156    0.1300
     39 H39        -7.1025   -1.4328   52.4617 H       1  ZINC000045927156    0.1100
     40 H40        -8.4786   -1.2608   51.3458 H       1  ZINC000045927156    0.1000
     41 H41        -8.1649    1.9450   50.9700 H       1  ZINC000045927156    0.2200
     42 H42        -4.4281    1.0218   49.2869 H       1  ZINC000045927156    0.2200
     43 H43       -14.2008   -1.4073   55.4101 H       1  ZINC000045927156    0.0700
     44 H44       -14.2786   -2.1489   53.7825 H       1  ZINC000045927156    0.0800
     45 H45       -16.0406   -2.9316   55.6794 H       1  ZINC000045927156    0.0900
     46 H46       -15.2761   -4.1733   54.6315 H       1  ZINC000045927156    0.0800
     47 H47       -14.4782   -3.3172   57.4709 H       1  ZINC000045927156    0.0900
     48 H48       -14.6457   -4.9785   56.8144 H       1  ZINC000045927156    0.0900
     49 H49       -11.5084   -0.0930   59.4025 H       1  ZINC000045927156    0.1300
     50 H50        -9.8465   -0.0610   61.1783 H       1  ZINC000045927156    0.1400
     51 H51        -8.4890   -2.0552   61.6628 H       1  ZINC000045927156    0.1400
     52 H52        -8.8000   -4.1077   60.3490 H       1  ZINC000045927156    0.1300
@<TRIPOS>BOND
     1     1     2    2
     2     2     3   am
     3     2    17   am
     4     3     4    1
     5     3    32    1
     6     4     5    1
     7     4    33    1
     8     4    34    1
     9     5    10   ar
    10     5     6   ar
    11     6     7   ar
    12     6    35    1
    13     7     8   ar
    14     7    36    1
    15     8     9   ar
    16     8    37    1
    17     9    10   ar
    18     9    38    1
    19    10    11    1
    20    11    12    1
    21    11    39    1
    22    11    40    1
    23    12    16    1
    24    12    13    1
    25    13    14    2
    26    13    41    1
    27    14    15    1
    28    15    16    2
    29    15    42    1
    30    17    21    1
    31    17    18    1
    32    18    19    1
    33    18    43    1
    34    18    44    1
    35    19    20    1
    36    19    45    1
    37    19    46    1
    38    20    21    1
    39    20    47    1
    40    20    48    1
    41    21    22    1
    42    21    23    1
    43    23    31    1
    44    23    24    2
    45    24    25    1
    46    25    30   ar
    47    25    26   ar
    48    26    27   ar
    49    26    49    1
    50    27    28   ar
    51    27    50    1
    52    28    29   ar
    53    28    51    1
    54    29    30   ar
    55    29    52    1
    56    30    31    1
@<TRIPOS>SUBSTRUCTURE
     1 ZINC000045927156        1 TEMP              0 ****  ****    0 ROOT


##########                                Name:    ZINC000442010511
##########                DOCK_Rotatable_Bonds:                  11
##########                         Heavy_Atoms:                  31
##########                    Molecular_Weight:             422.481
##########                DOCK_Rotatable_Bonds:                  11
##########                       Formal_Charge:          -0.0200005
##########                     HBond_Acceptors:                   7
##########                        HBond_Donors:                   2
##########                         Heavy_Atoms:                  31
##########                          Grid_Score:          -41.518528
##########                     Grid_vdw_energy:          -39.048695
##########                      Grid_es_energy:           -2.469833
##########           Internal_energy_repulsive:            8.851271

@<TRIPOS>MOLECULE
ZINC000442010511
 57 59 1 0 0
SMALL
USER_CHARGES


@<TRIPOS>ATOM
      1 C1        -12.4627   -1.3314   52.1736 C.3     1  ZINC000442010511   -0.1500
      2 C2        -11.2255   -2.1638   52.5161 C.3     1  ZINC000442010511   -0.0500
      3 C3        -10.0021   -1.2847   52.4777 C.2     1  ZINC000442010511    0.0000
      4 C4         -8.7539   -1.6864   52.1780 C.2     1  ZINC000442010511   -0.2100
      5 C5         -7.9248   -0.5443   52.2617 C.2     1  ZINC000442010511   -0.1900
      6 C6         -8.7160    0.4871   52.6075 C.2     1  ZINC000442010511   -0.0300
      7 C7         -8.2679    1.9111   52.8138 C.3     1  ZINC000442010511    0.2400
      8 H8         -8.9012    2.5793   52.2303 H       1  ZINC000442010511    0.1400
      9 C9         -8.3774    2.2704   54.2969 C.3     1  ZINC000442010511    0.0500
     10 O10        -9.7514    2.2591   54.6896 O.3     1  ZINC000442010511   -0.3800
     11 C11        -9.9670    2.6010   56.0603 C.3     1  ZINC000442010511    0.0300
     12 N12        -6.8763    2.0531   52.3784 N.am    1  ZINC000442010511   -0.6900
     13 C13        -6.5986    2.3322   51.0894 C.2     1  ZINC000442010511    0.5200
     14 O14        -7.5013    2.4644   50.2891 O.2     1  ZINC000442010511   -0.5100
     15 C15        -5.1802    2.4788   50.6459 C.2     1  ZINC000442010511    0.5100
     16 O16        -4.9258    3.0471   49.6039 O.2     1  ZINC000442010511   -0.5000
     17 N17        -4.1826    1.9802   51.4026 N.am    1  ZINC000442010511   -0.6300
     18 C18        -2.8542    2.1175   50.9872 C.ar    1  ZINC000442010511    0.1200
     19 C19        -2.3493    1.2973   49.9885 C.ar    1  ZINC000442010511   -0.1000
     20 C20        -1.0361    1.4349   49.5798 C.ar    1  ZINC000442010511   -0.1300
     21 C21        -0.2228    2.3885   50.1638 C.ar    1  ZINC000442010511   -0.0900
     22 C22        -0.7182    3.2094   51.1600 C.ar    1  ZINC000442010511   -0.1700
     23 C23        -2.0350    3.0827   51.5715 C.ar    1  ZINC000442010511    0.1000
     24 O24        -2.5236    3.8889   52.5508 O.3     1  ZINC000442010511   -0.2600
     25 C25        -2.2935    3.5352   53.8424 C.ar    1  ZINC000442010511    0.0800
     26 C26        -3.3058    2.9581   54.5958 C.ar    1  ZINC000442010511   -0.1300
     27 C27        -3.0692    2.5990   55.9086 C.ar    1  ZINC000442010511   -0.1100
     28 C28        -1.8250    2.8148   56.4721 C.ar    1  ZINC000442010511   -0.0800
     29 C29        -1.5699    2.4225   57.9046 C.3     1  ZINC000442010511   -0.1200
     30 C30        -0.8144    3.3893   55.7234 C.ar    1  ZINC000442010511   -0.1100
     31 C31        -1.0442    3.7454   54.4086 C.ar    1  ZINC000442010511   -0.1100
     32 O32        -9.9742    0.0338   52.7314 O.3     1  ZINC000442010511   -0.1600
     33 H33       -12.5711   -0.5259   52.8998 H       1  ZINC000442010511    0.0600
     34 H34       -12.3507   -0.9080   51.1754 H       1  ZINC000442010511    0.0600
     35 H35       -13.3476   -1.9673   52.2013 H       1  ZINC000442010511    0.0700
     36 H36       -11.3375   -2.5873   53.5142 H       1  ZINC000442010511    0.0900
     37 H37       -11.1170   -2.9694   51.7898 H       1  ZINC000442010511    0.0800
     38 H38        -8.4442   -2.6892   51.9230 H       1  ZINC000442010511    0.1500
     39 H39        -6.8604   -0.5071   52.0827 H       1  ZINC000442010511    0.1500
     40 H40        -7.8242    1.5417   54.8892 H       1  ZINC000442010511    0.0700
     41 H41        -7.9607    3.2642   54.4616 H       1  ZINC000442010511    0.0700
     42 H42       -11.0343    2.5695   56.2790 H       1  ZINC000442010511    0.0900
     43 H43        -9.4439    1.8893   56.6989 H       1  ZINC000442010511    0.0400
     44 H44        -9.5871    3.6053   56.2482 H       1  ZINC000442010511    0.0400
     45 H45        -6.1548    1.9461   53.0178 H       1  ZINC000442010511    0.4200
     46 H46        -4.3859    1.5261   52.2352 H       1  ZINC000442010511    0.4300
     47 H47        -2.9820    0.5513   49.5306 H       1  ZINC000442010511    0.1600
     48 H48        -0.6441    0.7957   48.8025 H       1  ZINC000442010511    0.1300
     49 H49         0.8026    2.4922   49.8410 H       1  ZINC000442010511    0.1300
     50 H50        -0.0798    3.9526   51.6143 H       1  ZINC000442010511    0.1300
     51 H51        -4.2779    2.7900   54.1564 H       1  ZINC000442010511    0.1300
     52 H52        -3.8567    2.1497   56.4954 H       1  ZINC000442010511    0.1300
     53 H53        -1.2067    1.3954   57.9409 H       1  ZINC000442010511    0.0700
     54 H54        -0.8219    3.0878   58.3358 H       1  ZINC000442010511    0.0700
     55 H55        -2.4966    2.5006   58.4732 H       1  ZINC000442010511    0.0700
     56 H56         0.1564    3.5567   56.1660 H       1  ZINC000442010511    0.1300
     57 H57        -0.2545    4.1939   53.8242 H       1  ZINC000442010511    0.1300
@<TRIPOS>BOND
     1     1     2    1
     2     1    33    1
     3     1    34    1
     4     1    35    1
     5     2     3    1
     6     2    36    1
     7     2    37    1
     8     3    32    1
     9     3     4    2
    10     4     5    1
    11     4    38    1
    12     5     6    2
    13     5    39    1
    14     6     7    1
    15     6    32    1
    16     7     8    1
    17     7     9    1
    18     7    12    1
    19     9    10    1
    20     9    40    1
    21     9    41    1
    22    10    11    1
    23    11    42    1
    24    11    43    1
    25    11    44    1
    26    12    13   am
    27    12    45    1
    28    13    14    2
    29    13    15    1
    30    15    16    2
    31    15    17   am
    32    17    18    1
    33    17    46    1
    34    18    23   ar
    35    18    19   ar
    36    19    20   ar
    37    19    47    1
    38    20    21   ar
    39    20    48    1
    40    21    22   ar
    41    21    49    1
    42    22    23   ar
    43    22    50    1
    44    23    24    1
    45    24    25    1
    46    25    31   ar
    47    25    26   ar
    48    26    27   ar
    49    26    51    1
    50    27    28   ar
    51    27    52    1
    52    28    29    1
    53    28    30   ar
    54    29    53    1
    55    29    54    1
    56    29    55    1
    57    30    31   ar
    58    30    56    1
    59    31    57    1
@<TRIPOS>SUBSTRUCTURE
     1 ZINC000442010511        1 TEMP              0 ****  ****    0 ROOT


##########                                Name:    ZINC001461256440
##########                DOCK_Rotatable_Bonds:                  13
##########                         Heavy_Atoms:                  26
##########                    Molecular_Weight:             367.445
##########                DOCK_Rotatable_Bonds:                  13
##########                       Formal_Charge:        -6.37025e-07
##########                     HBond_Acceptors:                   8
##########                        HBond_Donors:                   1
##########                         Heavy_Atoms:                  26
##########                          Grid_Score:          -41.516811
##########                     Grid_vdw_energy:          -38.471569
##########                      Grid_es_energy:           -3.045244
##########           Internal_energy_repulsive:           35.179356

@<TRIPOS>MOLECULE
ZINC001461256440
 55 55 1 0 0
SMALL
USER_CHARGES


@<TRIPOS>ATOM
      1 C1         -0.4807    1.5358   49.4043 C.3     1  ZINC001461256440   -0.1500
      2 C2         -1.8707    2.1544   49.2429 C.3     1  ZINC001461256440    0.0600
      3 O3         -2.8750    1.2182   49.7152 O.3     1  ZINC001461256440   -0.3600
      4 C4         -4.1601    1.5533   49.5206 C.2     1  ZINC001461256440    0.4400
      5 O5         -4.4427    2.4448   48.7557 O.2     1  ZINC001461256440   -0.4800
      6 C6         -5.2504    0.8176   50.2562 C.3     1  ZINC001461256440    0.1400
      7 N7         -6.2665    1.7726   50.7056 N.pl3   1  ZINC001461256440   -0.3800
      8 N8         -7.4389    2.1126   50.0188 N.2     1  ZINC001461256440   -0.2800
      9 C9         -8.0931    2.9941   50.7310 C.2     1  ZINC001461256440    0.1000
     10 C10        -9.4093    3.6271   50.3597 C.3     1  ZINC001461256440   -0.0700
     11 C11        -7.3629    3.2475   51.8954 C.2     1  ZINC001461256440   -0.2700
     12 C12        -6.2412    2.4774   51.8597 C.2     1  ZINC001461256440    0.3100
     13 N13        -5.2429    2.4301   52.8326 N.am    1  ZINC001461256440   -0.6500
     14 C14        -4.5228    3.5341   53.1136 C.2     1  ZINC001461256440    0.5200
     15 O15        -4.7438    4.5693   52.5214 O.2     1  ZINC001461256440   -0.5000
     16 C16        -3.4430    3.4824   54.1635 C.3     1  ZINC001461256440   -0.1300
     17 C17        -4.0592    3.7310   55.5416 C.3     1  ZINC001461256440   -0.1100
     18 C18        -2.9502    3.7823   56.5944 C.3     1  ZINC001461256440   -0.1100
     19 C19        -2.5067    2.3587   56.9378 C.3     1  ZINC001461256440   -0.1200
     20 C20        -1.5274    2.4001   58.0824 C.2     1  ZINC001461256440    0.4600
     21 O21        -0.7645    3.3307   58.1916 O.2     1  ZINC001461256440   -0.5000
     22 O22        -1.5026    1.4030   58.9809 O.3     1  ZINC001461256440   -0.3500
     23 C23        -0.6869    1.6030   60.1653 C.3     1  ZINC001461256440    0.1200
     24 C24         0.7852    1.7018   59.7599 C.3     1  ZINC001461256440   -0.1800
     25 C25        -1.1112    2.8960   60.8645 C.3     1  ZINC001461256440   -0.1400
     26 C26        -0.8749    0.4219   61.1195 C.3     1  ZINC001461256440   -0.1800
     27 H27         0.2732    2.2386   49.0496 H       1  ZINC001461256440    0.0800
     28 H28        -0.3026    1.3119   50.4560 H       1  ZINC001461256440    0.0700
     29 H29        -0.4224    0.6161   48.8221 H       1  ZINC001461256440    0.0700
     30 H30        -1.9290    3.0741   49.8251 H       1  ZINC001461256440    0.0700
     31 H31        -2.0488    2.3783   48.1910 H       1  ZINC001461256440    0.0700
     32 H32        -5.7083    0.0862   49.5903 H       1  ZINC001461256440    0.1300
     33 H33        -4.8250    0.3065   51.1198 H       1  ZINC001461256440    0.1400
     34 H34       -10.2269    3.0207   50.7493 H       1  ZINC001461256440    0.0800
     35 H35        -9.4642    4.6285   50.7865 H       1  ZINC001461256440    0.0800
     36 H36        -9.4889    3.6900   49.2743 H       1  ZINC001461256440    0.0700
     37 H37        -7.6410    3.9303   52.6847 H       1  ZINC001461256440    0.1800
     38 H38        -5.0671    1.6025   53.3070 H       1  ZINC001461256440    0.4100
     39 H39        -2.9689    2.5010   54.1490 H       1  ZINC001461256440    0.1000
     40 H40        -2.6968    4.2492   53.9553 H       1  ZINC001461256440    0.1000
     41 H41        -4.5966    4.6792   55.5335 H       1  ZINC001461256440    0.0800
     42 H42        -4.7507    2.9234   55.7814 H       1  ZINC001461256440    0.0800
     43 H43        -2.1017    4.3423   56.2014 H       1  ZINC001461256440    0.0700
     44 H44        -3.3245    4.2729   57.4929 H       1  ZINC001461256440    0.0700
     45 H45        -3.3758    1.7666   57.2244 H       1  ZINC001461256440    0.1100
     46 H46        -2.0300    1.9069   56.0679 H       1  ZINC001461256440    0.1100
     47 H47         0.9191    2.5433   59.0801 H       1  ZINC001461256440    0.0600
     48 H48         1.3976    1.8520   60.6491 H       1  ZINC001461256440    0.0700
     49 H49         1.0875    0.7807   59.2618 H       1  ZINC001461256440    0.0800
     50 H50        -2.1599    2.8257   61.1532 H       1  ZINC001461256440    0.0700
     51 H51        -0.4989    3.0462   61.7535 H       1  ZINC001461256440    0.0800
     52 H52        -0.9772    3.7376   60.1846 H       1  ZINC001461256440    0.0700
     53 H53        -0.5725   -0.4993   60.6213 H       1  ZINC001461256440    0.0800
     54 H54        -0.2626    0.5721   62.0085 H       1  ZINC001461256440    0.0700
     55 H55        -1.9236    0.3515   61.4082 H       1  ZINC001461256440    0.0600
@<TRIPOS>BOND
     1     1     2    1
     2     1    27    1
     3     1    28    1
     4     1    29    1
     5     2     3    1
     6     2    30    1
     7     2    31    1
     8     3     4    1
     9     4     5    2
    10     4     6    1
    11     6     7    1
    12     6    32    1
    13     6    33    1
    14     7    12    1
    15     7     8    1
    16     8     9    2
    17     9    10    1
    18     9    11    1
    19    10    34    1
    20    10    35    1
    21    10    36    1
    22    11    12    2
    23    11    37    1
    24    12    13    1
    25    13    14   am
    26    13    38    1
    27    14    15    2
    28    14    16    1
    29    16    17    1
    30    16    39    1
    31    16    40    1
    32    17    18    1
    33    17    41    1
    34    17    42    1
    35    18    19    1
    36    18    43    1
    37    18    44    1
    38    19    20    1
    39    19    45    1
    40    19    46    1
    41    20    21    2
    42    20    22    1
    43    22    23    1
    44    23    24    1
    45    23    25    1
    46    23    26    1
    47    24    47    1
    48    24    48    1
    49    24    49    1
    50    25    50    1
    51    25    51    1
    52    25    52    1
    53    26    53    1
    54    26    54    1
    55    26    55    1
@<TRIPOS>SUBSTRUCTURE
     1 ZINC001461256440        1 TEMP              0 ****  ****    0 ROOT


##########                                Name:    ZINC000484900616
##########                DOCK_Rotatable_Bonds:                  10
##########                         Heavy_Atoms:                  29
##########                    Molecular_Weight:             415.556
##########                DOCK_Rotatable_Bonds:                  10
##########                       Formal_Charge:        -1.49012e-08
##########                     HBond_Acceptors:                   7
##########                        HBond_Donors:                   1
##########                         Heavy_Atoms:                  29
##########                          Grid_Score:          -41.346436
##########                     Grid_vdw_energy:          -40.104832
##########                      Grid_es_energy:           -1.241603
##########           Internal_energy_repulsive:           22.020460

@<TRIPOS>MOLECULE
ZINC000484900616
 58 60 1 0 0
SMALL
USER_CHARGES


@<TRIPOS>ATOM
      1 C1         -5.3912    2.7740   49.9942 C.3     1  ZINC000484900616   -0.1500
      2 C2         -4.8842    1.8064   51.0656 C.3     1  ZINC000484900616    0.0600
      3 O3         -5.8937    1.6557   52.0983 O.3     1  ZINC000484900616   -0.3400
      4 C4         -6.9749    0.9108   51.7930 C.2     1  ZINC000484900616    0.5500
      5 O5         -7.0815    0.4193   50.6864 O.2     1  ZINC000484900616   -0.5000
      6 C6         -8.0259    0.6927   52.7991 C.2     1  ZINC000484900616    0.0200
      7 C7         -7.9230    1.1154   54.0800 C.2     1  ZINC000484900616   -0.2400
      8 S8         -9.3425    0.6718   54.9228 S.3     1  ZINC000484900616    0.2900
      9 C9         -9.9910   -0.0516   53.5184 C.2     1  ZINC000484900616    0.0300
     10 C10       -11.3366   -0.7262   53.4438 C.3     1  ZINC000484900616    0.1500
     11 H11       -11.6329   -1.0900   54.4277 H       1  ZINC000484900616    0.0900
     12 C12       -12.4006    0.2529   52.8881 C.3     1  ZINC000484900616   -0.1200
     13 C13       -13.4561   -0.7264   52.3103 C.3     1  ZINC000484900616   -0.1400
     14 C14       -12.5940   -1.8829   51.7619 C.3     1  ZINC000484900616    0.0500
     15 N15       -11.3009   -1.8401   52.4724 N.3     1  ZINC000484900616   -0.5100
     16 C16       -11.0251   -3.1186   53.1412 C.3     1  ZINC000484900616    0.0300
     17 C17       -11.9559   -3.2826   54.3150 C.2     1  ZINC000484900616    0.5200
     18 O18       -13.1418   -3.4556   54.1289 O.2     1  ZINC000484900616   -0.5100
     19 N19       -11.4705   -3.2369   55.5715 N.am    1  ZINC000484900616   -0.7300
     20 C20       -12.3752   -3.3980   56.7125 C.3     1  ZINC000484900616    0.1900
     21 H21       -13.3282   -2.9174   56.4914 H       1  ZINC000484900616    0.1000
     22 C22       -12.6042   -4.8879   56.9752 C.3     1  ZINC000484900616   -0.1600
     23 C23       -11.7626   -2.7611   57.9332 C.ar    1  ZINC000484900616   -0.1000
     24 C24       -10.4672   -3.0749   58.3001 C.ar    1  ZINC000484900616   -0.1100
     25 C25        -9.9053   -2.4906   59.4199 C.ar    1  ZINC000484900616   -0.1100
     26 C26       -10.6385   -1.5923   60.1724 C.ar    1  ZINC000484900616   -0.0800
     27 C27       -10.0260   -0.9556   61.3933 C.3     1  ZINC000484900616   -0.0900
     28 C28        -9.9729    0.5618   61.2049 C.3     1  ZINC000484900616   -0.1500
     29 C29       -11.9333   -1.2774   59.8046 C.ar    1  ZINC000484900616   -0.1100
     30 C30       -12.4939   -1.8588   58.6827 C.ar    1  ZINC000484900616   -0.1000
     31 N31        -9.1738    0.0636   52.5319 N.2     1  ZINC000484900616   -0.4300
     32 H32        -6.3066    2.3800   49.5527 H       1  ZINC000484900616    0.0700
     33 H33        -5.5946    3.7441   50.4477 H       1  ZINC000484900616    0.0700
     34 H34        -4.6333    2.8871   49.2189 H       1  ZINC000484900616    0.0800
     35 H35        -4.6807    0.8364   50.6121 H       1  ZINC000484900616    0.0700
     36 H36        -3.9687    2.2003   51.5070 H       1  ZINC000484900616    0.0700
     37 H37        -7.0819    1.6461   54.5012 H       1  ZINC000484900616    0.1900
     38 H38       -12.8272    0.8603   53.6864 H       1  ZINC000484900616    0.0900
     39 H39       -11.9805    0.8816   52.1031 H       1  ZINC000484900616    0.0800
     40 H40       -14.1228   -1.0818   53.0960 H       1  ZINC000484900616    0.0700
     41 H41       -14.0221   -0.2535   51.5078 H       1  ZINC000484900616    0.0800
     42 H42       -13.0880   -2.8358   51.9513 H       1  ZINC000484900616    0.0600
     43 H43       -12.4349   -1.7515   50.6916 H       1  ZINC000484900616    0.0900
     44 H44       -11.1791   -3.9371   52.4382 H       1  ZINC000484900616    0.1100
     45 H45        -9.9930   -3.1299   53.4916 H       1  ZINC000484900616    0.0700
     46 H46       -10.5223   -3.0972   55.7203 H       1  ZINC000484900616    0.4000
     47 H47       -13.2772   -5.0078   57.8242 H       1  ZINC000484900616    0.0700
     48 H48       -13.0474   -5.3485   56.0923 H       1  ZINC000484900616    0.0700
     49 H49       -11.6512   -5.3685   57.1963 H       1  ZINC000484900616    0.0600
     50 H50        -9.8944   -3.7767   57.7122 H       1  ZINC000484900616    0.1200
     51 H51        -8.8935   -2.7363   59.7070 H       1  ZINC000484900616    0.1200
     52 H52       -10.6311   -1.1922   62.2686 H       1  ZINC000484900616    0.0700
     53 H53        -9.0158   -1.3397   61.5353 H       1  ZINC000484900616    0.0700
     54 H54        -9.3678    0.7983   60.3297 H       1  ZINC000484900616    0.0600
     55 H55       -10.9830    0.9459   61.0630 H       1  ZINC000484900616    0.0600
     56 H56        -9.5299    1.0222   62.0880 H       1  ZINC000484900616    0.0600
     57 H57       -12.5060   -0.5752   60.3923 H       1  ZINC000484900616    0.1200
     58 H58       -13.5056   -1.6128   58.3953 H       1  ZINC000484900616    0.1200
@<TRIPOS>BOND
     1     1     2    1
     2     1    32    1
     3     1    33    1
     4     1    34    1
     5     2     3    1
     6     2    35    1
     7     2    36    1
     8     3     4    1
     9     4     5    2
    10     4     6    1
    11     6    31    1
    12     6     7    2
    13     7     8    1
    14     7    37    1
    15     8     9    1
    16     9    10    1
    17     9    31    2
    18    10    11    1
    19    10    15    1
    20    10    12    1
    21    12    13    1
    22    12    38    1
    23    12    39    1
    24    13    14    1
    25    13    40    1
    26    13    41    1
    27    14    15    1
    28    14    42    1
    29    14    43    1
    30    15    16    1
    31    16    17    1
    32    16    44    1
    33    16    45    1
    34    17    18    2
    35    17    19   am
    36    19    20    1
    37    19    46    1
    38    20    21    1
    39    20    22    1
    40    20    23    1
    41    22    47    1
    42    22    48    1
    43    22    49    1
    44    23    30   ar
    45    23    24   ar
    46    24    25   ar
    47    24    50    1
    48    25    26   ar
    49    25    51    1
    50    26    27    1
    51    26    29   ar
    52    27    28    1
    53    27    52    1
    54    27    53    1
    55    28    54    1
    56    28    55    1
    57    28    56    1
    58    29    30   ar
    59    29    57    1
    60    30    58    1
@<TRIPOS>SUBSTRUCTURE
     1 ZINC000484900616        1 TEMP              0 ****  ****    0 ROOT


##########                                Name:    ZINC000498646479
##########                DOCK_Rotatable_Bonds:                   7
##########                         Heavy_Atoms:                  29
##########                    Molecular_Weight:              407.58
##########                DOCK_Rotatable_Bonds:                   7
##########                       Formal_Charge:          -0.0199997
##########                     HBond_Acceptors:                   5
##########                        HBond_Donors:                   0
##########                         Heavy_Atoms:                  29
##########                          Grid_Score:          -41.321541
##########                     Grid_vdw_energy:          -39.418732
##########                      Grid_es_energy:           -1.902811
##########           Internal_energy_repulsive:           25.564800

@<TRIPOS>MOLECULE
ZINC000498646479
 58 61 1 0 0
SMALL
USER_CHARGES


@<TRIPOS>ATOM
      1 C1         -1.0476    2.2215   50.1958 C.3     1  ZINC000498646479   -0.1500
      2 C2         -2.2981    1.7743   49.4362 C.3     1  ZINC000498646479   -0.0600
      3 C3         -3.5256    2.2933   50.1398 C.2     1  ZINC000498646479   -0.1700
      4 C4         -4.6801    2.6000   49.5464 C.2     1  ZINC000498646479   -0.1400
      5 C5         -5.6699    3.0590   50.3983 C.2     1  ZINC000498646479   -0.1300
      6 C6         -5.3191    3.1249   51.6836 C.2     1  ZINC000498646479   -0.1900
      7 C7         -6.2123    3.5891   52.8051 C.3     1  ZINC000498646479    0.1300
      8 N8         -6.9259    2.4368   53.3717 N.3     1  ZINC000498646479   -0.5300
      9 C9         -8.0117    2.0012   52.4833 C.3     1  ZINC000498646479    0.0400
     10 C10        -8.6110    0.6956   53.0166 C.3     1  ZINC000498646479    0.1200
     11 N11        -8.9998    0.8992   54.4204 N.am    1  ZINC000498646479   -0.6100
     12 C12       -10.2361    0.5768   54.8495 C.2     1  ZINC000498646479    0.5200
     13 O13       -11.0450    0.1121   54.0744 O.2     1  ZINC000498646479   -0.5400
     14 C14       -10.6134    0.7938   56.2922 C.3     1  ZINC000498646479   -0.1000
     15 H15        -9.7714    0.5291   56.9318 H       1  ZINC000498646479    0.0900
     16 C16       -10.9760    2.2644   56.5090 C.3     1  ZINC000498646479   -0.1500
     17 C17       -11.8159   -0.0849   56.6426 C.3     1  ZINC000498646479   -0.0600
     18 C18       -11.3661   -1.5154   56.7923 C.ar    1  ZINC000498646479   -0.1200
     19 C19       -10.6293   -1.9215   57.9194 C.ar    1  ZINC000498646479   -0.0200
     20 C20       -10.2810   -1.0315   58.9457 C.ar    1  ZINC000498646479   -0.1200
     21 C21        -9.5662   -1.4854   60.0127 C.ar    1  ZINC000498646479   -0.1000
     22 C22        -9.1750   -2.8204   60.1000 C.ar    1  ZINC000498646479   -0.1200
     23 C23        -9.4956   -3.7123   59.1222 C.ar    1  ZINC000498646479   -0.0900
     24 C24       -10.2320   -3.2814   58.0074 C.ar    1  ZINC000498646479   -0.1100
     25 C25       -10.5921   -4.1547   56.9688 C.ar    1  ZINC000498646479    0.1400
     26 N26       -11.2819   -3.7056   55.9463 N.ar    1  ZINC000498646479   -0.4800
     27 C27       -11.6699   -2.4423   55.8416 C.ar    1  ZINC000498646479    0.0800
     28 C28        -8.0037    1.4637   55.3436 C.3     1  ZINC000498646479    0.1100
     29 C29        -7.4283    2.7390   54.7185 C.3     1  ZINC000498646479    0.0400
     30 S30        -3.6573    2.5797   51.8702 S.3     1  ZINC000498646479    0.1300
     31 H31        -0.1597    1.8462   49.6869 H       1  ZINC000498646479    0.0600
     32 H32        -1.0134    3.3105   50.2304 H       1  ZINC000498646479    0.0600
     33 H33        -1.0784    1.8266   51.2112 H       1  ZINC000498646479    0.0600
     34 H34        -2.2671    2.1693   48.4208 H       1  ZINC000498646479    0.0800
     35 H35        -2.3321    0.6854   49.4016 H       1  ZINC000498646479    0.0700
     36 H36        -4.8311    2.4984   48.4819 H       1  ZINC000498646479    0.1400
     37 H37        -6.6517    3.3426   50.0488 H       1  ZINC000498646479    0.1300
     38 H38        -5.6074    4.0589   53.5806 H       1  ZINC000498646479    0.0900
     39 H39        -6.9338    4.3099   52.4205 H       1  ZINC000498646479    0.0500
     40 H40        -8.7845    2.7691   52.4498 H       1  ZINC000498646479    0.0400
     41 H41        -7.6174    1.8374   51.4803 H       1  ZINC000498646479    0.1000
     42 H42        -9.4889    0.4285   52.4285 H       1  ZINC000498646479    0.1000
     43 H43        -7.8689   -0.1004   52.9541 H       1  ZINC000498646479    0.0800
     44 H44       -11.1674    2.4392   57.5677 H       1  ZINC000498646479    0.0700
     45 H45       -10.1495    2.8946   56.1802 H       1  ZINC000498646479    0.0600
     46 H46       -11.8692    2.5071   55.9334 H       1  ZINC000498646479    0.0700
     47 H47       -12.2556    0.2576   57.5794 H       1  ZINC000498646479    0.0900
     48 H48       -12.5583   -0.0188   55.8472 H       1  ZINC000498646479    0.0800
     49 H49       -10.5770    0.0057   58.8905 H       1  ZINC000498646479    0.1400
     50 H50        -9.2979   -0.8002   60.8032 H       1  ZINC000498646479    0.1300
     51 H51        -8.6082   -3.1528   60.9569 H       1  ZINC000498646479    0.1300
     52 H52        -9.1855   -4.7435   59.2038 H       1  ZINC000498646479    0.1300
     53 H53       -10.3018   -5.1942   57.0109 H       1  ZINC000498646479    0.1600
     54 H54       -12.2358   -2.1375   54.9736 H       1  ZINC000498646479    0.1500
     55 H55        -8.4801    1.7044   56.2939 H       1  ZINC000498646479    0.0900
     56 H56        -7.2033    0.7415   55.5047 H       1  ZINC000498646479    0.0800
     57 H57        -6.6109    3.1102   55.3368 H       1  ZINC000498646479    0.0900
     58 H58        -8.2092    3.4966   54.6540 H       1  ZINC000498646479    0.0400
@<TRIPOS>BOND
     1     1     2    1
     2     1    31    1
     3     1    32    1
     4     1    33    1
     5     2     3    1
     6     2    34    1
     7     2    35    1
     8     3    30    1
     9     3     4    2
    10     4     5    1
    11     4    36    1
    12     5     6    2
    13     5    37    1
    14     6     7    1
    15     6    30    1
    16     7     8    1
    17     7    38    1
    18     7    39    1
    19     8    29    1
    20     8     9    1
    21     9    10    1
    22     9    40    1
    23     9    41    1
    24    10    11    1
    25    10    42    1
    26    10    43    1
    27    11    12   am
    28    11    28    1
    29    12    13    2
    30    12    14    1
    31    14    15    1
    32    14    16    1
    33    14    17    1
    34    16    44    1
    35    16    45    1
    36    16    46    1
    37    17    18    1
    38    17    47    1
    39    17    48    1
    40    18    27   ar
    41    18    19   ar
    42    19    24   ar
    43    19    20   ar
    44    20    21   ar
    45    20    49    1
    46    21    22   ar
    47    21    50    1
    48    22    23   ar
    49    22    51    1
    50    23    24   ar
    51    23    52    1
    52    24    25   ar
    53    25    26   ar
    54    25    53    1
    55    26    27   ar
    56    27    54    1
    57    28    29    1
    58    28    55    1
    59    28    56    1
    60    29    57    1
    61    29    58    1
@<TRIPOS>SUBSTRUCTURE
     1 ZINC000498646479        1 TEMP              0 ****  ****    0 ROOT


##########                                Name:    ZINC000489986384
##########                DOCK_Rotatable_Bonds:                  11
##########                         Heavy_Atoms:                  31
##########                    Molecular_Weight:             415.492
##########                DOCK_Rotatable_Bonds:                  11
##########                       Formal_Charge:          -0.0499997
##########                     HBond_Acceptors:                   6
##########                        HBond_Donors:                   2
##########                         Heavy_Atoms:                  31
##########                          Grid_Score:          -41.157261
##########                     Grid_vdw_energy:          -40.087265
##########                      Grid_es_energy:           -1.069997
##########           Internal_energy_repulsive:           13.111719

@<TRIPOS>MOLECULE
ZINC000489986384
 56 59 1 0 0
SMALL
USER_CHARGES


@<TRIPOS>ATOM
      1 O1         -8.9840    4.7051   50.6870 O.2     1  ZINC000489986384   -0.5000
      2 C2         -9.3544    3.6934   51.2439 C.2     1  ZINC000489986384    0.4900
      3 C3         -8.5595    3.1328   52.3950 C.3     1  ZINC000489986384    0.0900
      4 N4         -7.7854    1.9766   51.9367 N.pl3   1  ZINC000489986384   -0.4700
      5 C5         -6.6428    2.0116   51.1625 C.ar    1  ZINC000489986384    0.0700
      6 C6         -5.8901    3.0306   50.5958 C.ar    1  ZINC000489986384   -0.1100
      7 C7         -4.7690    2.7207   49.8550 C.ar    1  ZINC000489986384   -0.0900
      8 C8         -4.3901    1.3986   49.6727 C.ar    1  ZINC000489986384   -0.1300
      9 C9         -5.1193    0.3824   50.2227 C.ar    1  ZINC000489986384   -0.0600
     10 C10        -6.2583    0.6725   50.9778 C.ar    1  ZINC000489986384    0.0500
     11 N11        -7.1668   -0.0938   51.6346 N.2     1  ZINC000489986384   -0.4600
     12 C12        -8.0556    0.6696   52.2002 C.2     1  ZINC000489986384    0.2800
     13 C13        -9.2214    0.1772   53.0184 C.3     1  ZINC000489986384    0.1400
     14 O14        -9.7915   -0.9734   52.3912 O.3     1  ZINC000489986384   -0.3000
     15 C15       -10.6853   -1.6935   53.1188 C.ar    1  ZINC000489986384    0.1300
     16 C16       -11.0395   -2.9727   52.7155 C.ar    1  ZINC000489986384   -0.2100
     17 C17       -11.9480   -3.7028   53.4572 C.ar    1  ZINC000489986384   -0.0800
     18 C18       -12.5046   -3.1594   54.6003 C.ar    1  ZINC000489986384   -0.1600
     19 C19       -12.1536   -1.8845   55.0041 C.ar    1  ZINC000489986384   -0.0800
     20 C20       -11.2409   -1.1527   54.2693 C.ar    1  ZINC000489986384   -0.1500
     21 N21       -10.4798    3.0735   50.8370 N.am    1  ZINC000489986384   -0.7300
     22 C22       -11.2525    3.6185   49.7180 C.3     1  ZINC000489986384    0.1300
     23 C23       -12.7452    3.4054   49.9773 C.3     1  ZINC000489986384   -0.0600
     24 H24       -12.9623    3.5956   51.0285 H       1  ZINC000489986384    0.0900
     25 C25       -13.5564    4.3672   49.1069 C.3     1  ZINC000489986384    0.0800
     26 O26       -14.8840    3.8624   48.9489 O.3     1  ZINC000489986384   -0.5700
     27 C27       -13.1165    1.9851   49.6368 C.ar    1  ZINC000489986384   -0.0700
     28 C28       -13.0005    1.5334   48.3356 C.ar    1  ZINC000489986384   -0.1100
     29 C29       -13.3411    0.2305   48.0233 C.ar    1  ZINC000489986384   -0.1200
     30 C30       -13.7973   -0.6207   49.0123 C.ar    1  ZINC000489986384   -0.1200
     31 C31       -13.9125   -0.1692   50.3138 C.ar    1  ZINC000489986384   -0.1200
     32 C32       -13.5678    1.1323   50.6269 C.ar    1  ZINC000489986384   -0.1100
     33 H33        -7.8810    3.8970   52.7744 H       1  ZINC000489986384    0.1200
     34 H34        -9.2389    2.8235   53.1892 H       1  ZINC000489986384    0.1200
     35 H35        -6.1810    4.0615   50.7340 H       1  ZINC000489986384    0.1200
     36 H36        -4.1823    3.5126   49.4134 H       1  ZINC000489986384    0.1300
     37 H37        -3.5100    1.1703   49.0898 H       1  ZINC000489986384    0.1300
     38 H38        -4.8158   -0.6433   50.0738 H       1  ZINC000489986384    0.1300
     39 H39        -8.8777   -0.0869   54.0185 H       1  ZINC000489986384    0.0800
     40 H40        -9.9738    0.9628   53.0886 H       1  ZINC000489986384    0.1000
     41 H41       -10.6055   -3.3973   51.8223 H       1  ZINC000489986384    0.1300
     42 H42       -12.2240   -4.6987   53.1436 H       1  ZINC000489986384    0.1300
     43 H43       -13.2149   -3.7317   55.1785 H       1  ZINC000489986384    0.1200
     44 H44       -12.5899   -1.4621   55.8972 H       1  ZINC000489986384    0.1300
     45 H45       -10.9670   -0.1569   54.5852 H       1  ZINC000489986384    0.1300
     46 H46       -10.7781    2.2665   51.2850 H       1  ZINC000489986384    0.4000
     47 H47       -11.0492    4.6849   49.6213 H       1  ZINC000489986384    0.0800
     48 H48       -10.9674    3.1093   48.7974 H       1  ZINC000489986384    0.0800
     49 H49       -13.5945    5.3459   49.5852 H       1  ZINC000489986384    0.0500
     50 H50       -13.0839    4.4589   48.1290 H       1  ZINC000489986384    0.0500
     51 H51       -14.9265    2.9924   48.5288 H       1  ZINC000489986384    0.3800
     52 H52       -12.6441    2.1984   47.5629 H       1  ZINC000489986384    0.1200
     53 H53       -13.2512   -0.1222   47.0065 H       1  ZINC000489986384    0.1200
     54 H54       -14.0640   -1.6384   48.7682 H       1  ZINC000489986384    0.1200
     55 H55       -14.2691   -0.8342   51.0865 H       1  ZINC000489986384    0.1200
     56 H56       -13.6577    1.4851   51.6437 H       1  ZINC000489986384    0.1200
@<TRIPOS>BOND
     1     1     2    2
     2     2     3    1
     3     2    21   am
     4     3     4    1
     5     3    33    1
     6     3    34    1
     7     4    12    1
     8     4     5    1
     9     5    10   ar
    10     5     6   ar
    11     6     7   ar
    12     6    35    1
    13     7     8   ar
    14     7    36    1
    15     8     9   ar
    16     8    37    1
    17     9    10   ar
    18     9    38    1
    19    10    11    1
    20    11    12    2
    21    12    13    1
    22    13    14    1
    23    13    39    1
    24    13    40    1
    25    14    15    1
    26    15    20   ar
    27    15    16   ar
    28    16    17   ar
    29    16    41    1
    30    17    18   ar
    31    17    42    1
    32    18    19   ar
    33    18    43    1
    34    19    20   ar
    35    19    44    1
    36    20    45    1
    37    21    22    1
    38    21    46    1
    39    22    23    1
    40    22    47    1
    41    22    48    1
    42    23    24    1
    43    23    25    1
    44    23    27    1
    45    25    26    1
    46    25    49    1
    47    25    50    1
    48    26    51    1
    49    27    32   ar
    50    27    28   ar
    51    28    29   ar
    52    28    52    1
    53    29    30   ar
    54    29    53    1
    55    30    31   ar
    56    30    54    1
    57    31    32   ar
    58    31    55    1
    59    32    56    1
@<TRIPOS>SUBSTRUCTURE
     1 ZINC000489986384        1 TEMP              0 ****  ****    0 ROOT


##########                                Name:    ZINC000474251633
##########                DOCK_Rotatable_Bonds:                   8
##########                         Heavy_Atoms:                  28
##########                    Molecular_Weight:             416.931
##########                DOCK_Rotatable_Bonds:                   8
##########                       Formal_Charge:          0.00999953
##########                     HBond_Acceptors:                   8
##########                        HBond_Donors:                   2
##########                         Heavy_Atoms:                  28
##########                          Grid_Score:          -41.146221
##########                     Grid_vdw_energy:          -38.172134
##########                      Grid_es_energy:           -2.974087
##########           Internal_energy_repulsive:           10.539615

@<TRIPOS>MOLECULE
ZINC000474251633
 49 52 1 0 0
SMALL
USER_CHARGES


@<TRIPOS>ATOM
      1 O1        -11.0577    1.1478   53.5900 O.2     1  ZINC000474251633   -0.5300
      2 C2         -9.9526    0.7002   53.8122 C.2     1  ZINC000474251633    0.5100
      3 C3         -8.9777    1.4831   54.6534 C.3     1  ZINC000474251633    0.1000
      4 N4         -7.6730    1.5136   53.9877 N.am    1  ZINC000474251633   -0.7100
      5 C5         -7.4702    2.3365   52.9398 C.2     1  ZINC000474251633    0.5900
      6 O6         -8.3702    3.0552   52.5475 O.2     1  ZINC000474251633   -0.5000
      7 C7         -6.1631    2.3658   52.2716 C.2     1  ZINC000474251633   -0.2300
      8 C8         -5.7185    1.4269   51.4280 C.2     1  ZINC000474251633    0.0400
      9 Cl9        -6.6629    0.0297   51.0160 Cl      1  ZINC000474251633   -0.0100
     10 C10        -4.4359    1.6480   50.8973 C.ar    1  ZINC000474251633   -0.0900
     11 C11        -3.7004    0.8482   49.9910 C.ar    1  ZINC000474251633   -0.0600
     12 C12        -2.4595    1.2280   49.5855 C.ar    1  ZINC000474251633   -0.1200
     13 C13        -1.8909    2.4065   50.0522 C.ar    1  ZINC000474251633   -0.0800
     14 C14        -2.5802    3.2044   50.9336 C.ar    1  ZINC000474251633   -0.0900
     15 C15        -3.8583    2.8351   51.3649 C.ar    1  ZINC000474251633   -0.1200
     16 S16        -4.9724    3.6404   52.4638 S.3     1  ZINC000474251633    0.1700
     17 N17        -9.5984   -0.5000   53.3115 N.am    1  ZINC000474251633   -0.7200
     18 C18       -10.5462   -1.2610   52.4938 C.3     1  ZINC000474251633    0.2100
     19 C19       -11.4493   -2.0675   53.3911 C.2     1  ZINC000474251633    0.0500
     20 N20       -11.1164   -2.5936   54.5417 N.2     1  ZINC000474251633   -0.2700
     21 N21       -12.2348   -3.2608   55.0579 N.pl3   1  ZINC000474251633   -0.3600
     22 C22       -12.2945   -3.9873   56.3288 C.3     1  ZINC000474251633    0.1500
     23 C23       -12.7971   -3.0528   57.4485 C.3     1  ZINC000474251633   -0.1400
     24 C24       -14.3179   -3.3364   57.5258 C.3     1  ZINC000474251633   -0.1300
     25 C25       -14.3926   -4.8658   57.2928 C.3     1  ZINC000474251633   -0.1200
     26 C26       -13.3090   -5.1401   56.2298 C.3     1  ZINC000474251633   -0.1400
     27 C27       -13.2475   -3.1161   54.1778 C.2     1  ZINC000474251633    0.0600
     28 C28       -12.7900   -2.3774   53.1404 C.2     1  ZINC000474251633   -0.2600
     29 H29        -9.3442    2.5017   54.7812 H       1  ZINC000474251633    0.1100
     30 H30        -8.8766    1.0081   55.6292 H       1  ZINC000474251633    0.1100
     31 H31        -6.9551    0.9415   54.3012 H       1  ZINC000474251633    0.4100
     32 H32        -4.1278   -0.0712   49.6188 H       1  ZINC000474251633    0.1300
     33 H33        -1.9099    0.6070   48.8936 H       1  ZINC000474251633    0.1400
     34 H34        -0.9043    2.6961   49.7218 H       1  ZINC000474251633    0.1400
     35 H35        -2.1337    4.1194   51.2942 H       1  ZINC000474251633    0.1400
     36 H36        -8.7159   -0.8597   53.4925 H       1  ZINC000474251633    0.4100
     37 H37       -11.1461   -0.5732   51.8980 H       1  ZINC000474251633    0.0900
     38 H38        -9.9983   -1.9320   51.8322 H       1  ZINC000474251633    0.0900
     39 H39       -11.3089   -4.3780   56.5818 H       1  ZINC000474251633    0.1100
     40 H40       -12.3147   -3.2977   58.3949 H       1  ZINC000474251633    0.0900
     41 H41       -12.6162   -2.0106   57.1855 H       1  ZINC000474251633    0.0800
     42 H42       -14.7099   -3.0757   58.5089 H       1  ZINC000474251633    0.0800
     43 H43       -14.8512   -2.7996   56.7413 H       1  ZINC000474251633    0.0700
     44 H44       -14.1681   -5.4034   58.2140 H       1  ZINC000474251633    0.0700
     45 H45       -15.3762   -5.1467   56.9163 H       1  ZINC000474251633    0.0700
     46 H46       -13.7569   -5.1589   55.2362 H       1  ZINC000474251633    0.0700
     47 H47       -12.8159   -6.0900   56.4356 H       1  ZINC000474251633    0.0800
     48 H48       -14.2456   -3.5148   54.2844 H       1  ZINC000474251633    0.1700
     49 H49       -13.3580   -2.0843   52.2699 H       1  ZINC000474251633    0.1500
@<TRIPOS>BOND
     1     1     2    2
     2     2     3    1
     3     2    17   am
     4     3     4    1
     5     3    29    1
     6     3    30    1
     7     4     5   am
     8     4    31    1
     9     5     6    2
    10     5     7    1
    11     7    16    1
    12     7     8    2
    13     8     9    1
    14     8    10    1
    15    10    15   ar
    16    10    11   ar
    17    11    12   ar
    18    11    32    1
    19    12    13   ar
    20    12    33    1
    21    13    14   ar
    22    13    34    1
    23    14    15   ar
    24    14    35    1
    25    15    16    1
    26    17    18    1
    27    17    36    1
    28    18    19    1
    29    18    37    1
    30    18    38    1
    31    19    28    1
    32    19    20    2
    33    20    21    1
    34    21    22    1
    35    21    27    1
    36    22    26    1
    37    22    23    1
    38    22    39    1
    39    23    24    1
    40    23    40    1
    41    23    41    1
    42    24    25    1
    43    24    42    1
    44    24    43    1
    45    25    26    1
    46    25    44    1
    47    25    45    1
    48    26    46    1
    49    26    47    1
    50    27    28    2
    51    27    48    1
    52    28    49    1
@<TRIPOS>SUBSTRUCTURE
     1 ZINC000474251633        1 TEMP              0 ****  ****    0 ROOT


##########                                Name:    ZINC000058043838
##########                DOCK_Rotatable_Bonds:                   8
##########                         Heavy_Atoms:                  29
##########                    Molecular_Weight:             412.469
##########                DOCK_Rotatable_Bonds:                   8
##########                       Formal_Charge:           0.0200001
##########                     HBond_Acceptors:                   9
##########                        HBond_Donors:                   0
##########                         Heavy_Atoms:                  29
##########                          Grid_Score:          -41.041893
##########                     Grid_vdw_energy:          -39.996262
##########                      Grid_es_energy:           -1.045631
##########           Internal_energy_repulsive:           14.358530

@<TRIPOS>MOLECULE
ZINC000058043838
 49 51 1 0 0
SMALL
USER_CHARGES


@<TRIPOS>ATOM
      1 C1         -1.2112    2.4726   49.3350 C.3     1  ZINC000058043838    0.0300
      2 O2         -2.3577    3.1440   49.8612 O.3     1  ZINC000058043838   -0.3800
      3 C3         -3.5901    2.7545   49.2516 C.3     1  ZINC000058043838    0.0300
      4 C4         -4.0881    1.4573   49.8917 C.3     1  ZINC000058043838    0.1000
      5 N5         -5.0139    1.7747   50.9819 N.am    1  ZINC000058043838   -0.5200
      6 C6         -6.2664    1.2771   50.9687 C.2     1  ZINC000058043838    0.5100
      7 O7         -6.6274    0.5677   50.0535 O.2     1  ZINC000058043838   -0.4500
      8 C8         -7.2183    1.6021   52.0909 C.3     1  ZINC000058043838   -0.0900
      9 C9         -8.2493    0.5093   52.2074 C.ar    1  ZINC000058043838   -0.1400
     10 C10        -9.5847    0.8227   52.4085 C.ar    1  ZINC000058043838   -0.0500
     11 C11       -10.4984   -0.2156   52.5095 C.ar    1  ZINC000058043838   -0.1700
     12 C12       -10.0507   -1.5189   52.4068 C.ar    1  ZINC000058043838    0.1300
     13 C13       -11.0348   -2.6551   52.5144 C.3     1  ZINC000058043838   -0.1100
     14 N14        -8.7722   -1.7799   52.2154 N.ar    1  ZINC000058043838   -0.4800
     15 C15        -7.8764   -0.8181   52.1095 C.ar    1  ZINC000058043838    0.1200
     16 C16        -4.6008    2.5888   52.0293 C.2     1  ZINC000058043838    0.3100
     17 N17        -3.6664    2.2989   52.8801 N.2     1  ZINC000058043838   -0.4700
     18 C18        -3.4045    3.1996   53.8169 C.2     1  ZINC000058043838    0.1100
     19 C19        -2.3597    2.9898   54.8485 C.ar    1  ZINC000058043838    0.0400
     20 C20        -2.6768    2.3485   56.0448 C.ar    1  ZINC000058043838   -0.0800
     21 C21        -1.7004    2.1556   57.0009 C.ar    1  ZINC000058043838   -0.0500
     22 C22        -0.4093    2.5972   56.7738 C.ar    1  ZINC000058043838   -0.0400
     23 N23         0.6336    2.3873   57.8032 N.pl3   1  ZINC000058043838    0.0300
     24 O24         0.3542    1.8267   58.8477 O.2     1  ZINC000058043838   -0.1600
     25 O25         1.7711    2.7752   57.6056 O.2     1  ZINC000058043838   -0.1600
     26 C26        -0.0889    3.2338   55.5882 C.ar    1  ZINC000058043838   -0.0500
     27 C27        -1.0560    3.4280   54.6229 C.ar    1  ZINC000058043838   -0.1100
     28 C28        -4.1516    4.3171   53.7670 C.2     1  ZINC000058043838   -0.2600
     29 S29        -5.2597    4.1785   52.4039 S.3     1  ZINC000058043838    0.1500
     30 H30        -1.3187    1.3983   49.4848 H       1  ZINC000058043838    0.0500
     31 H31        -1.1237    2.6839   48.2692 H       1  ZINC000058043838    0.0400
     32 H32        -0.3167    2.8235   49.8496 H       1  ZINC000058043838    0.0900
     33 H33        -4.3317    3.5398   49.3975 H       1  ZINC000058043838    0.0600
     34 H34        -3.4335    2.5964   48.1845 H       1  ZINC000058043838    0.0800
     35 H35        -4.6023    0.8561   49.1419 H       1  ZINC000058043838    0.1200
     36 H36        -3.2399    0.8981   50.2867 H       1  ZINC000058043838    0.1000
     37 H37        -6.6641    1.6800   53.0262 H       1  ZINC000058043838    0.1100
     38 H38        -7.7151    2.5497   51.8828 H       1  ZINC000058043838    0.1100
     39 H39        -9.9057    1.8510   52.4852 H       1  ZINC000058043838    0.1300
     40 H40       -11.5466   -0.0083   52.6665 H       1  ZINC000058043838    0.1400
     41 H41       -11.4178   -2.8990   51.5235 H       1  ZINC000058043838    0.0800
     42 H42       -10.5371   -3.5281   52.9366 H       1  ZINC000058043838    0.0800
     43 H43       -11.8613   -2.3599   53.1609 H       1  ZINC000058043838    0.0800
     44 H44        -6.8380   -1.0706   51.9531 H       1  ZINC000058043838    0.1500
     45 H45        -3.6845    2.0037   56.2234 H       1  ZINC000058043838    0.1600
     46 H46        -1.9449    1.6592   57.9283 H       1  ZINC000058043838    0.1600
     47 H47         0.9207    3.5766   55.4162 H       1  ZINC000058043838    0.1600
     48 H48        -0.8046    3.9247   53.6975 H       1  ZINC000058043838    0.1500
     49 H49        -4.0816    5.1562   54.4434 H       1  ZINC000058043838    0.1800
@<TRIPOS>BOND
     1     1     2    1
     2     1    30    1
     3     1    31    1
     4     1    32    1
     5     2     3    1
     6     3     4    1
     7     3    33    1
     8     3    34    1
     9     4     5    1
    10     4    35    1
    11     4    36    1
    12     5     6   am
    13     5    16    1
    14     6     7    2
    15     6     8    1
    16     8     9    1
    17     8    37    1
    18     8    38    1
    19     9    15   ar
    20     9    10   ar
    21    10    11   ar
    22    10    39    1
    23    11    12   ar
    24    11    40    1
    25    12    13    1
    26    12    14   ar
    27    13    41    1
    28    13    42    1
    29    13    43    1
    30    14    15   ar
    31    15    44    1
    32    16    29    1
    33    16    17    2
    34    17    18    1
    35    18    19    1
    36    18    28    2
    37    19    27   ar
    38    19    20   ar
    39    20    21   ar
    40    20    45    1
    41    21    22   ar
    42    21    46    1
    43    22    23    1
    44    22    26   ar
    45    23    24    2
    46    23    25    2
    47    26    27   ar
    48    26    47    1
    49    27    48    1
    50    28    29    1
    51    28    49    1
@<TRIPOS>SUBSTRUCTURE
     1 ZINC000058043838        1 TEMP              0 ****  ****    0 ROOT


##########                                Name:    ZINC001119787528
##########                DOCK_Rotatable_Bonds:                   6
##########                         Heavy_Atoms:                  27
##########                    Molecular_Weight:             362.434
##########                DOCK_Rotatable_Bonds:                   6
##########                       Formal_Charge:          -0.0199998
##########                     HBond_Acceptors:                   7
##########                        HBond_Donors:                   1
##########                         Heavy_Atoms:                  27
##########                          Grid_Score:          -40.981773
##########                     Grid_vdw_energy:          -40.257328
##########                      Grid_es_energy:           -0.724446
##########           Internal_energy_repulsive:           12.172432

@<TRIPOS>MOLECULE
ZINC001119787528
 49 52 1 0 0
SMALL
USER_CHARGES


@<TRIPOS>ATOM
      1 C1         -3.6035    5.0206   51.8478 C.3     1  ZINC001119787528   -0.1700
      2 C2         -3.9177    3.9099   52.8522 C.3     1  ZINC001119787528    0.1000
      3 N3         -4.1969    2.6650   52.1320 N.pl3   1  ZINC001119787528   -0.4500
      4 C4         -3.2896    1.8675   51.5228 C.2     1  ZINC001119787528    0.1800
      5 N5         -3.9149    0.8516   50.9871 N.2     1  ZINC001119787528   -0.4800
      6 C6         -5.2220    0.9648   51.2323 C.2     1  ZINC001119787528   -0.0200
      7 C7         -5.4184    2.0890   51.9542 C.2     1  ZINC001119787528   -0.0100
      8 C8         -6.7574    2.5739   52.4445 C.3     1  ZINC001119787528   -0.0600
      9 C9         -7.8613    1.8733   51.6418 C.3     1  ZINC001119787528    0.1400
     10 N10        -7.5471    0.4403   51.5408 N.am    1  ZINC001119787528   -0.6200
     11 C11        -8.3478   -0.4836   52.1081 C.2     1  ZINC001119787528    0.7200
     12 O12        -8.0739   -1.6644   52.0157 O.2     1  ZINC001119787528   -0.5600
     13 N13        -9.4521   -0.0983   52.7780 N.am    1  ZINC001119787528   -0.6600
     14 C14       -10.2779   -1.0512   53.3630 C.ar    1  ZINC001119787528    0.4200
     15 C15       -10.6933   -2.1691   52.6393 C.ar    1  ZINC001119787528   -0.2500
     16 C16       -11.5136   -3.0884   53.2656 C.ar    1  ZINC001119787528    0.1600
     17 N17       -11.8760   -2.8799   54.5228 N.ar    1  ZINC001119787528   -0.5300
     18 C18       -11.4662   -1.8130   55.1793 C.ar    1  ZINC001119787528    0.3500
     19 C19       -11.9043   -1.6188   56.6081 C.3     1  ZINC001119787528   -0.0100
     20 C20       -10.8993   -2.2563   57.5326 C.ar    1  ZINC001119787528   -0.0800
     21 C21       -10.8871   -3.6284   57.6998 C.ar    1  ZINC001119787528   -0.1000
     22 C22        -9.9653   -4.2132   58.5479 C.ar    1  ZINC001119787528   -0.1200
     23 C23        -9.0554   -3.4259   59.2283 C.ar    1  ZINC001119787528   -0.1200
     24 C24        -9.0670   -2.0538   59.0603 C.ar    1  ZINC001119787528   -0.1200
     25 C25        -9.9860   -1.4694   58.2090 C.ar    1  ZINC001119787528   -0.1000
     26 N26       -10.6798   -0.9144   54.6227 N.ar    1  ZINC001119787528   -0.5500
     27 C27        -6.3348    0.0359   50.8078 C.3     1  ZINC001119787528    0.2000
     28 H28        -3.3958    5.9468   52.3836 H       1  ZINC001119787528    0.0800
     29 H29        -2.7321    4.7397   51.2562 H       1  ZINC001119787528    0.0600
     30 H30        -4.4588    5.1664   51.1881 H       1  ZINC001119787528    0.0600
     31 H31        -3.0624    3.7640   53.5119 H       1  ZINC001119787528    0.0900
     32 H32        -4.7891    4.1909   53.4436 H       1  ZINC001119787528    0.1000
     33 H33        -2.2243    2.0413   51.4849 H       1  ZINC001119787528    0.2100
     34 H34        -6.8674    2.3354   53.5023 H       1  ZINC001119787528    0.0800
     35 H35        -6.8301    3.6520   52.3016 H       1  ZINC001119787528    0.0900
     36 H36        -8.8177    2.0017   52.1486 H       1  ZINC001119787528    0.1100
     37 H37        -7.9159    2.3057   50.6428 H       1  ZINC001119787528    0.0800
     38 H38        -9.6705    0.8438   52.8517 H       1  ZINC001119787528    0.4200
     39 H39       -10.3820   -2.3125   51.6151 H       1  ZINC001119787528    0.1800
     40 H40       -11.8553   -3.9658   52.7364 H       1  ZINC001119787528    0.1700
     41 H41       -11.9729   -0.5529   56.8254 H       1  ZINC001119787528    0.1000
     42 H42       -12.8793   -2.0832   56.7555 H       1  ZINC001119787528    0.1000
     43 H43       -11.5981   -4.2435   57.1682 H       1  ZINC001119787528    0.1300
     44 H44        -9.9563   -5.2852   58.6791 H       1  ZINC001119787528    0.1200
     45 H45        -8.3357   -3.8827   59.8914 H       1  ZINC001119787528    0.1200
     46 H46        -8.3563   -1.4387   59.5923 H       1  ZINC001119787528    0.1200
     47 H47        -9.9950   -0.3975   58.0778 H       1  ZINC001119787528    0.1200
     48 H48        -6.5012    0.1310   49.7348 H       1  ZINC001119787528    0.0900
     49 H49        -6.0785   -0.9943   51.0545 H       1  ZINC001119787528    0.0900
@<TRIPOS>BOND
     1     1     2    1
     2     1    28    1
     3     1    29    1
     4     1    30    1
     5     2     3    1
     6     2    31    1
     7     2    32    1
     8     3     7    1
     9     3     4    1
    10     4     5    2
    11     4    33    1
    12     5     6    1
    13     6    27    1
    14     6     7    2
    15     7     8    1
    16     8     9    1
    17     8    34    1
    18     8    35    1
    19     9    10    1
    20     9    36    1
    21     9    37    1
    22    10    11   am
    23    10    27    1
    24    11    12    2
    25    11    13   am
    26    13    14    1
    27    13    38    1
    28    14    26   ar
    29    14    15   ar
    30    15    16   ar
    31    15    39    1
    32    16    17   ar
    33    16    40    1
    34    17    18   ar
    35    18    19    1
    36    18    26   ar
    37    19    20    1
    38    19    41    1
    39    19    42    1
    40    20    25   ar
    41    20    21   ar
    42    21    22   ar
    43    21    43    1
    44    22    23   ar
    45    22    44    1
    46    23    24   ar
    47    23    45    1
    48    24    25   ar
    49    24    46    1
    50    25    47    1
    51    27    48    1
    52    27    49    1
@<TRIPOS>SUBSTRUCTURE
     1 ZINC001119787528        1 TEMP              0 ****  ****    0 ROOT


##########                                Name:    ZINC000428266315
##########                DOCK_Rotatable_Bonds:                  10
##########                         Heavy_Atoms:                  30
##########                    Molecular_Weight:             423.438
##########                DOCK_Rotatable_Bonds:                  10
##########                       Formal_Charge:          0.00999977
##########                     HBond_Acceptors:                  10
##########                        HBond_Donors:                   0
##########                         Heavy_Atoms:                  30
##########                          Grid_Score:          -40.915115
##########                     Grid_vdw_energy:          -38.381912
##########                      Grid_es_energy:           -2.533201
##########           Internal_energy_repulsive:            8.907576

@<TRIPOS>MOLECULE
ZINC000428266315
 54 56 1 0 0
SMALL
USER_CHARGES


@<TRIPOS>ATOM
      1 C1        -14.1600   -0.9365   47.8848 C.3     1  ZINC000428266315   -0.1500
      2 C2        -13.7771    0.5424   47.7994 C.3     1  ZINC000428266315    0.0600
      3 O3        -13.1721    0.9495   49.0284 O.3     1  ZINC000428266315   -0.3700
      4 C4        -12.7688    2.3202   49.0517 C.3     1  ZINC000428266315    0.1800
      5 H5        -12.2513    2.5625   48.1235 H       1  ZINC000428266315    0.0900
      6 C6        -14.0033    3.2126   49.1952 C.3     1  ZINC000428266315   -0.1700
      7 C7        -11.8432    2.5518   50.2182 C.2     1  ZINC000428266315    0.1700
      8 N8        -11.0020    3.5334   50.3493 N.2     1  ZINC000428266315   -0.3500
      9 O9        -10.4044    3.4367   51.4004 O.3     1  ZINC000428266315    0.0800
     10 C10       -10.8204    2.3512   52.0597 C.2     1  ZINC000428266315    0.1900
     11 C11       -10.3301    1.8740   53.4025 C.3     1  ZINC000428266315    0.1500
     12 N12        -8.8635    1.9487   53.4431 N.3     1  ZINC000428266315   -0.5300
     13 C13        -8.3969    2.4295   54.7504 C.3     1  ZINC000428266315    0.0200
     14 C14        -8.2610    0.6500   53.1141 C.3     1  ZINC000428266315    0.1400
     15 C15        -7.2806    0.8233   51.9828 C.2     1  ZINC000428266315   -0.2300
     16 C16        -6.7836    1.9988   51.5331 C.2     1  ZINC000428266315    0.0800
     17 N17        -5.9420    1.7267   50.5139 N.pl3   1  ZINC000428266315   -0.3700
     18 C18        -5.1838    2.7098   49.7362 C.3     1  ZINC000428266315    0.1700
     19 C19        -3.7142    2.5605   50.0341 C.ar    1  ZINC000428266315   -0.0800
     20 C20        -2.8334    2.2319   49.0207 C.ar    1  ZINC000428266315   -0.1000
     21 C21        -1.4852    2.0949   49.2940 C.ar    1  ZINC000428266315   -0.0700
     22 C22        -1.0179    2.2871   50.5807 C.ar    1  ZINC000428266315   -0.1700
     23 C23         0.4518    2.1373   50.8787 C.3     1  ZINC000428266315    0.5100
     24 F24         0.8439    0.8159   50.6392 F       1  ZINC000428266315   -0.1700
     25 F25         1.1848    2.9978   50.0546 F       1  ZINC000428266315   -0.1800
     26 F26         0.6909    2.4590   52.2190 F       1  ZINC000428266315   -0.1800
     27 C27        -1.8985    2.6170   51.5939 C.ar    1  ZINC000428266315   -0.0700
     28 C28        -3.2461    2.7578   51.3197 C.ar    1  ZINC000428266315   -0.0800
     29 N29        -5.9212    0.3379   50.3311 N.2     1  ZINC000428266315   -0.2900
     30 C30        -6.7191   -0.2028   51.2159 C.2     1  ZINC000428266315    0.0600
     31 N31       -11.7402    1.7836   51.3173 N.2     1  ZINC000428266315   -0.4600
     32 H32       -14.6216   -1.2470   46.9474 H       1  ZINC000428266315    0.0700
     33 H33       -13.2661   -1.5334   48.0649 H       1  ZINC000428266315    0.0600
     34 H34       -14.8653   -1.0825   48.7030 H       1  ZINC000428266315    0.0600
     35 H35       -13.0718    0.6885   46.9813 H       1  ZINC000428266315    0.0500
     36 H36       -14.6712    1.1394   47.6194 H       1  ZINC000428266315    0.0500
     37 H37       -14.5208    2.9703   50.1234 H       1  ZINC000428266315    0.0700
     38 H38       -13.6957    4.2581   49.2130 H       1  ZINC000428266315    0.0700
     39 H39       -14.6727    3.0451   48.3515 H       1  ZINC000428266315    0.0700
     40 H40       -10.7479    2.5047   54.1871 H       1  ZINC000428266315    0.0800
     41 H41       -10.6457    0.8424   53.5588 H       1  ZINC000428266315    0.1200
     42 H42        -8.7339    1.7464   55.5302 H       1  ZINC000428266315    0.0400
     43 H43        -7.3079    2.4752   54.7532 H       1  ZINC000428266315    0.0800
     44 H44        -8.8029    3.4235   54.9379 H       1  ZINC000428266315    0.0600
     45 H45        -7.7410    0.2587   53.9887 H       1  ZINC000428266315    0.0500
     46 H46        -9.0427   -0.0477   52.8139 H       1  ZINC000428266315    0.0900
     47 H47        -7.0184    2.9793   51.9205 H       1  ZINC000428266315    0.1700
     48 H48        -5.3578    2.5443   48.6730 H       1  ZINC000428266315    0.1000
     49 H49        -5.5089    3.7148   50.0054 H       1  ZINC000428266315    0.1100
     50 H50        -3.1985    2.0817   48.0154 H       1  ZINC000428266315    0.1300
     51 H51        -0.7971    1.8375   48.5023 H       1  ZINC000428266315    0.1400
     52 H52        -1.5333    2.7675   52.5990 H       1  ZINC000428266315    0.1400
     53 H53        -3.9341    3.0156   52.1113 H       1  ZINC000428266315    0.1400
     54 H54        -6.9161   -1.2586   51.3294 H       1  ZINC000428266315    0.1800
@<TRIPOS>BOND
     1     1     2    1
     2     1    32    1
     3     1    33    1
     4     1    34    1
     5     2     3    1
     6     2    35    1
     7     2    36    1
     8     3     4    1
     9     4     5    1
    10     4     6    1
    11     4     7    1
    12     6    37    1
    13     6    38    1
    14     6    39    1
    15     7    31    1
    16     7     8    2
    17     8     9    1
    18     9    10    1
    19    10    11    1
    20    10    31    2
    21    11    12    1
    22    11    40    1
    23    11    41    1
    24    12    13    1
    25    12    14    1
    26    13    42    1
    27    13    43    1
    28    13    44    1
    29    14    15    1
    30    14    45    1
    31    14    46    1
    32    15    30    1
    33    15    16    2
    34    16    17    1
    35    16    47    1
    36    17    18    1
    37    17    29    1
    38    18    19    1
    39    18    48    1
    40    18    49    1
    41    19    28   ar
    42    19    20   ar
    43    20    21   ar
    44    20    50    1
    45    21    22   ar
    46    21    51    1
    47    22    23    1
    48    22    27   ar
    49    23    24    1
    50    23    25    1
    51    23    26    1
    52    27    28   ar
    53    27    52    1
    54    28    53    1
    55    29    30    2
    56    30    54    1
@<TRIPOS>SUBSTRUCTURE
     1 ZINC000428266315        1 TEMP              0 ****  ****    0 ROOT


##########                                Name:    ZINC001574157642
##########                DOCK_Rotatable_Bonds:                   9
##########                         Heavy_Atoms:                  28
##########                    Molecular_Weight:             387.445
##########                DOCK_Rotatable_Bonds:                   9
##########                       Formal_Charge:          -0.0400004
##########                     HBond_Acceptors:                  11
##########                        HBond_Donors:                   4
##########                         Heavy_Atoms:                  28
##########                          Grid_Score:          -40.841652
##########                     Grid_vdw_energy:          -38.744907
##########                      Grid_es_energy:           -2.096746
##########           Internal_energy_repulsive:            9.658047

@<TRIPOS>MOLECULE
ZINC001574157642
 53 55 1 0 0
SMALL
USER_CHARGES


@<TRIPOS>ATOM
      1 C1        -10.4210    4.7196   53.0416 C.3     1  ZINC001574157642   -0.1400
      2 C2         -9.6269    3.9224   52.0048 C.3     1  ZINC001574157642   -0.0900
      3 C3         -9.3181    4.8159   50.8017 C.3     1  ZINC001574157642   -0.1500
      4 C4         -8.3172    3.4366   52.6287 C.3     1  ZINC001574157642   -0.1300
      5 C5         -8.0398    2.0006   52.1790 C.3     1  ZINC001574157642    0.1300
      6 H6         -8.4501    1.8468   51.1810 H       1  ZINC001574157642    0.1100
      7 C7         -8.6966    1.0241   53.1567 C.3     1  ZINC001574157642    0.1100
      8 N8         -8.9445   -0.2515   52.4803 N.pl3   1  ZINC001574157642   -0.7100
      9 C9         -9.8906   -1.1339   52.9865 C.ar    1  ZINC001574157642    0.3700
     10 C10       -10.5212   -0.8591   54.1987 C.ar    1  ZINC001574157642    0.0000
     11 N11       -11.4187   -1.6962   54.6799 N.ar    1  ZINC001574157642   -0.3700
     12 C12       -11.7230   -2.8032   54.0082 C.ar    1  ZINC001574157642    0.0800
     13 C13       -12.7337   -3.7455   54.5493 C.2     1  ZINC001574157642    0.2300
     14 N14       -13.1414   -4.8685   53.9917 N.2     1  ZINC001574157642   -0.2700
     15 N15       -14.0222   -5.3977   54.7695 N.pl3   1  ZINC001574157642   -0.2300
     16 N16       -14.1856   -4.6460   55.8017 N.2     1  ZINC001574157642   -0.0400
     17 N17       -13.4055   -3.6235   55.7031 N.2     1  ZINC001574157642   -0.2600
     18 C18       -11.0930   -3.0774   52.7965 C.ar    1  ZINC001574157642    0.1600
     19 N19       -10.1977   -2.2358   52.3129 N.ar    1  ZINC001574157642   -0.5000
     20 N20        -6.5937    1.7677   52.1536 N.am    1  ZINC001574157642   -0.7300
     21 C21        -5.8681    2.1505   51.0842 C.2     1  ZINC001574157642    0.5200
     22 O22        -6.4126    2.6865   50.1424 O.2     1  ZINC001574157642   -0.5100
     23 C23        -4.3803    1.9125   51.0588 C.3     1  ZINC001574157642   -0.1300
     24 H24        -4.0550    1.5270   52.0251 H       1  ZINC001574157642    0.1100
     25 C25        -3.6536    3.2291   50.7592 C.3     1  ZINC001574157642   -0.1000
     26 C26        -2.1489    2.9986   50.9194 C.3     1  ZINC001574157642   -0.1400
     27 C27        -1.7384    1.7638   50.1698 C.2     1  ZINC001574157642    0.5200
     28 O28        -0.5620    1.6100   49.9175 O.2     1  ZINC001574157642   -0.5500
     29 N29        -2.5979    0.8271   49.7672 N.am    1  ZINC001574157642   -0.7200
     30 C30        -4.0410    0.9015   49.9627 C.3     1  ZINC001574157642    0.1200
     31 H31        -9.8335    5.5779   53.3678 H       1  ZINC001574157642    0.0400
     32 H32       -11.3540    5.0657   52.5971 H       1  ZINC001574157642    0.0500
     33 H33       -10.6410    4.0831   53.8987 H       1  ZINC001574157642    0.0700
     34 H34       -10.2144    3.0641   51.6787 H       1  ZINC001574157642    0.0700
     35 H35        -8.7307    5.6741   51.1279 H       1  ZINC001574157642    0.0500
     36 H36        -8.7525    4.2479   50.0631 H       1  ZINC001574157642    0.0500
     37 H37       -10.2512    5.1620   50.3573 H       1  ZINC001574157642    0.0500
     38 H38        -7.5000    4.0823   52.3072 H       1  ZINC001574157642    0.0700
     39 H39        -8.3988    3.4676   53.7152 H       1  ZINC001574157642    0.0800
     40 H40        -8.0349    0.8617   54.0075 H       1  ZINC001574157642    0.0800
     41 H41        -9.6418    1.4401   53.5057 H       1  ZINC001574157642    0.0900
     42 H42        -8.4480   -0.4800   51.6788 H       1  ZINC001574157642    0.4100
     43 H43       -10.2742    0.0397   54.7441 H       1  ZINC001574157642    0.1700
     44 H44       -14.4892   -6.2314   54.6030 H       1  ZINC001574157642    0.4800
     45 H45       -11.3395   -3.9763   52.2509 H       1  ZINC001574157642    0.1800
     46 H46        -6.1583    1.3379   52.9064 H       1  ZINC001574157642    0.4000
     47 H47        -3.8700    3.5435   49.7381 H       1  ZINC001574157642    0.0800
     48 H48        -3.9837    3.9977   51.4580 H       1  ZINC001574157642    0.0900
     49 H49        -1.6068    3.8584   50.5255 H       1  ZINC001574157642    0.1100
     50 H50        -1.9120    2.8761   51.9764 H       1  ZINC001574157642    0.1000
     51 H51        -2.2407    0.0454   49.3176 H       1  ZINC001574157642    0.4000
     52 H52        -4.4176   -0.0819   50.2442 H       1  ZINC001574157642    0.0800
     53 H53        -4.5151    1.2126   49.0318 H       1  ZINC001574157642    0.0700
@<TRIPOS>BOND
     1     1     2    1
     2     1    31    1
     3     1    32    1
     4     1    33    1
     5     2     3    1
     6     2     4    1
     7     2    34    1
     8     3    35    1
     9     3    36    1
    10     3    37    1
    11     4     5    1
    12     4    38    1
    13     4    39    1
    14     5     6    1
    15     5     7    1
    16     5    20    1
    17     7     8    1
    18     7    40    1
    19     7    41    1
    20     8     9    1
    21     8    42    1
    22     9    19   ar
    23     9    10   ar
    24    10    11   ar
    25    10    43    1
    26    11    12   ar
    27    12    13    1
    28    12    18   ar
    29    13    17    1
    30    13    14    2
    31    14    15    1
    32    15    16    1
    33    15    44    1
    34    16    17    2
    35    18    19   ar
    36    18    45    1
    37    20    21   am
    38    20    46    1
    39    21    22    2
    40    21    23    1
    41    23    24    1
    42    23    30    1
    43    23    25    1
    44    25    26    1
    45    25    47    1
    46    25    48    1
    47    26    27    1
    48    26    49    1
    49    26    50    1
    50    27    28    2
    51    27    29   am
    52    29    30    1
    53    29    51    1
    54    30    52    1
    55    30    53    1
@<TRIPOS>SUBSTRUCTURE
     1 ZINC001574157642        1 TEMP              0 ****  ****    0 ROOT


##########                                Name:    ZINC000546142192
##########                DOCK_Rotatable_Bonds:                  12
##########                         Heavy_Atoms:                  31
##########                    Molecular_Weight:             420.511
##########                DOCK_Rotatable_Bonds:                  12
##########                       Formal_Charge:          -0.0599997
##########                     HBond_Acceptors:                   7
##########                        HBond_Donors:                   2
##########                         Heavy_Atoms:                  31
##########                          Grid_Score:          -40.804726
##########                     Grid_vdw_energy:          -41.462673
##########                      Grid_es_energy:            0.657949
##########           Internal_energy_repulsive:           13.529709

@<TRIPOS>MOLECULE
ZINC000546142192
 59 61 1 0 0
SMALL
USER_CHARGES


@<TRIPOS>ATOM
      1 C1         -1.5447    1.6727   49.1294 C.3     1  ZINC000546142192    0.0300
      2 O2         -1.8182    2.0260   50.5110 O.3     1  ZINC000546142192   -0.3600
      3 C3         -2.8156    2.8969   50.7313 C.2     1  ZINC000546142192    0.4600
      4 O4         -2.8473    3.9440   50.1292 O.2     1  ZINC000546142192   -0.5100
      5 C5         -3.8958    2.5686   51.7295 C.3     1  ZINC000546142192   -0.0800
      6 H6         -3.8009    1.5277   52.0383 H       1  ZINC000546142192    0.1100
      7 C7         -3.7543    3.4782   52.9516 C.3     1  ZINC000546142192   -0.1500
      8 C8         -5.2672    2.7871   51.0871 C.3     1  ZINC000546142192   -0.0600
      9 C9         -6.1671    1.6240   51.4165 C.ar    1  ZINC000546142192   -0.1000
     10 C10        -6.2306    0.5376   50.5634 C.ar    1  ZINC000546142192   -0.0900
     11 C11        -7.0540   -0.5302   50.8626 C.ar    1  ZINC000546142192   -0.1200
     12 C12        -7.8186   -0.5118   52.0217 C.ar    1  ZINC000546142192    0.1600
     13 N13        -8.6536   -1.5923   52.3281 N.am    1  ZINC000546142192   -0.6900
     14 C14        -9.9820   -1.4026   52.4544 C.2     1  ZINC000546142192    0.7100
     15 O15       -10.4548   -0.2928   52.3022 O.2     1  ZINC000546142192   -0.5700
     16 N16       -10.7863   -2.4431   52.7495 N.am    1  ZINC000546142192   -0.7400
     17 C17       -12.2299   -2.2366   52.8884 C.3     1  ZINC000546142192    0.2300
     18 C18       -12.7580   -3.1104   53.9969 C.2     1  ZINC000546142192    0.1800
     19 N19       -12.8158   -4.4139   53.9758 N.2     1  ZINC000546142192   -0.4700
     20 C20       -13.3406   -4.8522   55.1296 C.2     1  ZINC000546142192   -0.0300
     21 C21       -13.6187   -3.7796   55.8949 C.2     1  ZINC000546142192   -0.0400
     22 N22       -13.2443   -2.6746   55.1789 N.pl3   1  ZINC000546142192   -0.4500
     23 C23       -13.3580   -1.2793   55.6108 C.3     1  ZINC000546142192    0.1100
     24 C24       -11.9852   -0.7690   56.0532 C.3     1  ZINC000546142192   -0.0900
     25 C25       -11.5564   -1.4977   57.3007 C.ar    1  ZINC000546142192   -0.0900
     26 C26       -10.8437   -2.6781   57.2013 C.ar    1  ZINC000546142192   -0.1100
     27 C27       -10.4504   -3.3464   58.3456 C.ar    1  ZINC000546142192   -0.1200
     28 C28       -10.7695   -2.8342   59.5893 C.ar    1  ZINC000546142192   -0.1200
     29 C29       -11.4814   -1.6535   59.6887 C.ar    1  ZINC000546142192   -0.1200
     30 C30       -11.8709   -0.9829   58.5444 C.ar    1  ZINC000546142192   -0.1100
     31 C31        -7.7526    0.5807   52.8764 C.ar    1  ZINC000546142192   -0.1500
     32 C32        -6.9233    1.6429   52.5741 C.ar    1  ZINC000546142192   -0.0900
     33 H33        -1.2788    2.5700   48.5707 H       1  ZINC000546142192    0.0600
     34 H34        -0.7179    0.9634   49.0926 H       1  ZINC000546142192    0.1000
     35 H35        -2.4322    1.2194   48.6878 H       1  ZINC000546142192    0.0600
     36 H36        -3.8493    4.5192   52.6428 H       1  ZINC000546142192    0.0600
     37 H37        -4.5357    3.2408   53.6736 H       1  ZINC000546142192    0.0800
     38 H38        -2.7774    3.3226   53.4092 H       1  ZINC000546142192    0.0700
     39 H39        -5.7066    3.7070   51.4727 H       1  ZINC000546142192    0.0800
     40 H40        -5.1538    2.8639   50.0057 H       1  ZINC000546142192    0.0800
     41 H41        -5.6359    0.5241   49.6620 H       1  ZINC000546142192    0.1300
     42 H42        -7.1034   -1.3782   50.1958 H       1  ZINC000546142192    0.1400
     43 H43        -8.2764   -2.4776   52.4496 H       1  ZINC000546142192    0.4100
     44 H44       -10.4092   -3.3286   52.8697 H       1  ZINC000546142192    0.4000
     45 H45       -12.4263   -1.1909   53.1254 H       1  ZINC000546142192    0.0800
     46 H46       -12.7258   -2.4966   51.9533 H       1  ZINC000546142192    0.1000
     47 H47       -13.5106   -5.8845   55.3980 H       1  ZINC000546142192    0.1700
     48 H48       -14.0502   -3.7894   56.8848 H       1  ZINC000546142192    0.1800
     49 H49       -13.7222   -0.6712   54.7828 H       1  ZINC000546142192    0.1000
     50 H50       -14.0564   -1.2129   56.4450 H       1  ZINC000546142192    0.0900
     51 H51       -11.2585   -0.9470   55.2604 H       1  ZINC000546142192    0.0800
     52 H52       -12.0438    0.2999   56.2589 H       1  ZINC000546142192    0.0800
     53 H53       -10.5945   -3.0781   56.2296 H       1  ZINC000546142192    0.1200
     54 H54        -9.8942   -4.2689   58.2679 H       1  ZINC000546142192    0.1200
     55 H55       -10.4628   -3.3569   60.4833 H       1  ZINC000546142192    0.1200
     56 H56       -11.7309   -1.2536   60.6604 H       1  ZINC000546142192    0.1200
     57 H57       -12.4272   -0.0604   58.6220 H       1  ZINC000546142192    0.1200
     58 H58        -8.3461    0.5979   53.7786 H       1  ZINC000546142192    0.1300
     59 H59        -6.8712    2.4928   53.2386 H       1  ZINC000546142192    0.1300
@<TRIPOS>BOND
     1     1     2    1
     2     1    33    1
     3     1    34    1
     4     1    35    1
     5     2     3    1
     6     3     4    2
     7     3     5    1
     8     5     6    1
     9     5     7    1
    10     5     8    1
    11     7    36    1
    12     7    37    1
    13     7    38    1
    14     8     9    1
    15     8    39    1
    16     8    40    1
    17     9    32   ar
    18     9    10   ar
    19    10    11   ar
    20    10    41    1
    21    11    12   ar
    22    11    42    1
    23    12    13    1
    24    12    31   ar
    25    13    14   am
    26    13    43    1
    27    14    15    2
    28    14    16   am
    29    16    17    1
    30    16    44    1
    31    17    18    1
    32    17    45    1
    33    17    46    1
    34    18    22    1
    35    18    19    2
    36    19    20    1
    37    20    21    2
    38    20    47    1
    39    21    22    1
    40    21    48    1
    41    22    23    1
    42    23    24    1
    43    23    49    1
    44    23    50    1
    45    24    25    1
    46    24    51    1
    47    24    52    1
    48    25    30   ar
    49    25    26   ar
    50    26    27   ar
    51    26    53    1
    52    27    28   ar
    53    27    54    1
    54    28    29   ar
    55    28    55    1
    56    29    30   ar
    57    29    56    1
    58    30    57    1
    59    31    32   ar
    60    31    58    1
    61    32    59    1
@<TRIPOS>SUBSTRUCTURE
     1 ZINC000546142192        1 TEMP              0 ****  ****    0 ROOT


##########                                Name:    ZINC000821177065
##########                DOCK_Rotatable_Bonds:                  10
##########                         Heavy_Atoms:                  25
##########                    Molecular_Weight:             341.413
##########                DOCK_Rotatable_Bonds:                  10
##########                       Formal_Charge:          0.00999917
##########                     HBond_Acceptors:                   7
##########                        HBond_Donors:                   3
##########                         Heavy_Atoms:                  25
##########                          Grid_Score:          -40.578629
##########                     Grid_vdw_energy:          -39.148510
##########                      Grid_es_energy:           -1.430120
##########           Internal_energy_repulsive:           18.762911

@<TRIPOS>MOLECULE
ZINC000821177065
 48 51 1 0 0
SMALL
USER_CHARGES


@<TRIPOS>ATOM
      1 O1         -9.9740   -2.0029   51.9604 O.2     1  ZINC000821177065   -0.5600
      2 C2        -10.1269   -1.4147   53.0135 C.2     1  ZINC000821177065    0.7100
      3 N3        -11.1073   -1.7901   53.8588 N.am    1  ZINC000821177065   -0.7300
      4 C4        -11.9924   -2.9030   53.5061 C.3     1  ZINC000821177065    0.1200
      5 C5        -12.5956   -3.4983   54.7800 C.3     1  ZINC000821177065    0.1900
      6 O6        -13.1819   -4.7669   54.4816 O.3     1  ZINC000821177065   -0.5400
      7 C7        -11.4964   -3.6785   55.8288 C.3     1  ZINC000821177065   -0.1500
      8 C8        -11.7027   -3.0110   57.1900 C.3     1  ZINC000821177065   -0.1600
      9 C9        -11.8246   -4.5303   57.0568 C.3     1  ZINC000821177065   -0.1700
     10 C10       -13.6703   -2.5551   55.3243 C.3     1  ZINC000821177065   -0.1800
     11 C11       -15.0603   -2.6261   54.6890 C.3     1  ZINC000821177065   -0.1900
     12 C12       -14.8336   -3.1805   56.0968 C.3     1  ZINC000821177065   -0.1700
     13 N13        -9.3128   -0.3910   53.3380 N.am    1  ZINC000821177065   -0.6500
     14 C14        -8.2930   -0.0005   52.4587 C.2     1  ZINC000821177065    0.3200
     15 N15        -8.1346    1.1964   51.9449 N.2     1  ZINC000821177065   -0.3200
     16 N16        -7.0024    1.1717   51.1206 N.pl3   1  ZINC000821177065   -0.3600
     17 C17        -6.4705    2.3017   50.3551 C.3     1  ZINC000821177065    0.1900
     18 C18        -4.9655    2.2974   50.4330 C.ar    1  ZINC000821177065    0.1100
     19 C19        -4.3405    2.7170   51.5917 C.ar    1  ZINC000821177065   -0.1500
     20 C20        -2.9552    2.7088   51.6533 C.ar    1  ZINC000821177065   -0.0700
     21 C21        -2.2478    2.2768   50.5421 C.ar    1  ZINC000821177065   -0.1700
     22 C22        -2.9420    1.8715   49.4176 C.ar    1  ZINC000821177065    0.1000
     23 N23        -4.2603    1.8880   49.3964 N.ar    1  ZINC000821177065   -0.4700
     24 C24        -6.4869   -0.0752   51.1556 C.2     1  ZINC000821177065    0.0700
     25 C25        -7.2592   -0.8203   51.9785 C.2     1  ZINC000821177065   -0.2600
     26 H26       -11.2267   -1.3234   54.7008 H       1  ZINC000821177065    0.4000
     27 H27       -12.7923   -2.5404   52.8604 H       1  ZINC000821177065    0.0700
     28 H28       -11.4214   -3.6693   52.9820 H       1  ZINC000821177065    0.0800
     29 H29       -13.5035   -5.2441   55.2586 H       1  ZINC000821177065    0.3800
     30 H30       -10.4791   -3.7263   55.4404 H       1  ZINC000821177065    0.1100
     31 H31       -10.8210   -2.6194   57.6973 H       1  ZINC000821177065    0.0900
     32 H32       -12.6215   -2.4435   57.3383 H       1  ZINC000821177065    0.1100
     33 H33       -12.8234   -4.9624   57.1172 H       1  ZINC000821177065    0.1000
     34 H34       -11.0230   -5.1382   57.4763 H       1  ZINC000821177065    0.0900
     35 H35       -13.3159   -1.5780   55.6524 H       1  ZINC000821177065    0.1100
     36 H36       -15.6206   -1.6956   54.5986 H       1  ZINC000821177065    0.1000
     37 H37       -15.2092   -3.3448   53.8830 H       1  ZINC000821177065    0.1100
     38 H38       -14.8333   -4.2638   56.2172 H       1  ZINC000821177065    0.0900
     39 H39       -15.2446   -2.6146   56.9328 H       1  ZINC000821177065    0.1000
     40 H40        -9.4322    0.0757   54.1799 H       1  ZINC000821177065    0.4100
     41 H41        -6.7806    2.2134   49.3138 H       1  ZINC000821177065    0.1000
     42 H42        -6.8531    3.2342   50.7702 H       1  ZINC000821177065    0.1200
     43 H43        -4.9235    3.0476   52.4386 H       1  ZINC000821177065    0.1400
     44 H44        -2.4394    3.0315   52.5457 H       1  ZINC000821177065    0.1400
     45 H45        -1.1681    2.2574   50.5546 H       1  ZINC000821177065    0.1400
     46 H46        -2.3984    1.5340   48.5475 H       1  ZINC000821177065    0.1600
     47 H47        -5.6106   -0.4160   50.6244 H       1  ZINC000821177065    0.1800
     48 H48        -7.1113   -1.8630   52.2180 H       1  ZINC000821177065    0.1700
@<TRIPOS>BOND
     1     1     2    2
     2     2     3   am
     3     2    13   am
     4     3     4    1
     5     3    26    1
     6     4     5    1
     7     4    27    1
     8     4    28    1
     9     5     6    1
    10     5     7    1
    11     5    10    1
    12     6    29    1
    13     7     9    1
    14     7     8    1
    15     7    30    1
    16     8     9    1
    17     8    31    1
    18     8    32    1
    19     9    33    1
    20     9    34    1
    21    10    12    1
    22    10    11    1
    23    10    35    1
    24    11    12    1
    25    11    36    1
    26    11    37    1
    27    12    38    1
    28    12    39    1
    29    13    14    1
    30    13    40    1
    31    14    25    1
    32    14    15    2
    33    15    16    1
    34    16    17    1
    35    16    24    1
    36    17    18    1
    37    17    41    1
    38    17    42    1
    39    18    23   ar
    40    18    19   ar
    41    19    20   ar
    42    19    43    1
    43    20    21   ar
    44    20    44    1
    45    21    22   ar
    46    21    45    1
    47    22    23   ar
    48    22    46    1
    49    24    25    2
    50    24    47    1
    51    25    48    1
@<TRIPOS>SUBSTRUCTURE
     1 ZINC000821177065        1 TEMP              0 ****  ****    0 ROOT


##########                                Name:    ZINC000464139057
##########                DOCK_Rotatable_Bonds:                   9
##########                         Heavy_Atoms:                  30
##########                    Molecular_Weight:              413.56
##########                DOCK_Rotatable_Bonds:                   9
##########                       Formal_Charge:         2.38419e-07
##########                     HBond_Acceptors:                   6
##########                        HBond_Donors:                   2
##########                         Heavy_Atoms:                  30
##########                          Grid_Score:          -40.514866
##########                     Grid_vdw_energy:          -38.517620
##########                      Grid_es_energy:           -1.997245
##########           Internal_energy_repulsive:           13.816752

@<TRIPOS>MOLECULE
ZINC000464139057
 65 67 1 0 0
SMALL
USER_CHARGES


@<TRIPOS>ATOM
      1 C1        -14.6053   -3.3497   58.2772 C.3     1  ZINC000464139057   -0.1800
      2 C2        -14.2820   -4.4897   57.3095 C.3     1  ZINC000464139057    0.0700
      3 H3        -14.9906   -5.3047   57.4572 H       1  ZINC000464139057    0.1200
      4 C4        -14.3808   -3.9805   55.8669 C.3     1  ZINC000464139057    0.0800
      5 N5        -13.2936   -3.0150   55.6401 N.am    1  ZINC000464139057   -0.6100
      6 C6        -13.5436   -1.7999   55.1134 C.2     1  ZINC000464139057    0.5600
      7 O7        -14.6804   -1.4876   54.8181 O.2     1  ZINC000464139057   -0.5300
      8 C8        -12.4347   -0.8467   54.8948 C.ar    1  ZINC000464139057   -0.1200
      9 C9        -11.9222   -0.1104   55.9640 C.ar    1  ZINC000464139057   -0.0900
     10 C10       -10.8872    0.7770   55.7533 C.ar    1  ZINC000464139057   -0.1000
     11 C11       -10.3575    0.9382   54.4854 C.ar    1  ZINC000464139057   -0.0900
     12 C12        -9.2272    1.9098   54.2626 C.3     1  ZINC000464139057    0.1800
     13 N13        -8.0722    1.1971   53.7114 N.am    1  ZINC000464139057   -0.7400
     14 C14        -7.6918    1.4142   52.4367 C.2     1  ZINC000464139057    0.7000
     15 O15        -8.3064    2.2028   51.7449 O.2     1  ZINC000464139057   -0.5900
     16 N16        -6.6301    0.7573   51.9291 N.am    1  ZINC000464139057   -0.7500
     17 C17        -6.2177    0.9920   50.5431 C.3     1  ZINC000464139057    0.1400
     18 C18        -4.7047    0.7996   50.4216 C.3     1  ZINC000464139057   -0.0900
     19 C19        -4.0138    2.1275   50.5957 C.2     1  ZINC000464139057   -0.1200
     20 C20        -4.0706    2.7386   51.7362 C.2     1  ZINC000464139057   -0.1500
     21 C21        -3.3811    4.0729   51.9246 C.3     1  ZINC000464139057   -0.0900
     22 C22        -1.8691    3.8403   51.9640 C.3     1  ZINC000464139057   -0.1100
     23 C23        -1.2910    3.8210   50.5600 C.3     1  ZINC000464139057   -0.1200
     24 C24        -1.7569    2.6408   49.7260 C.3     1  ZINC000464139057   -0.1100
     25 C25        -3.2519    2.7370   49.4383 C.3     1  ZINC000464139057   -0.0800
     26 C26       -10.8606    0.2112   53.4212 C.ar    1  ZINC000464139057   -0.1000
     27 C27       -11.8919   -0.6835   53.6192 C.ar    1  ZINC000464139057   -0.0700
     28 C28       -11.9256   -3.4154   56.0057 C.3     1  ZINC000464139057    0.0700
     29 C29       -11.9465   -3.9522   57.4415 C.3     1  ZINC000464139057    0.0700
     30 H30       -12.1683   -3.1381   58.1314 H       1  ZINC000464139057    0.0700
     31 C31       -10.5812   -4.5531   57.7822 C.3     1  ZINC000464139057   -0.1500
     32 O32       -12.9545   -4.9611   57.5534 O.3     1  ZINC000464139057   -0.3700
     33 H33       -13.8964   -2.5351   58.1289 H       1  ZINC000464139057    0.0600
     34 H34       -15.6169   -2.9896   58.0895 H       1  ZINC000464139057    0.0700
     35 H35       -14.5331   -3.7120   59.3027 H       1  ZINC000464139057    0.0700
     36 H36       -14.2799   -4.8164   55.1748 H       1  ZINC000464139057    0.0800
     37 H37       -15.3433   -3.4917   55.7153 H       1  ZINC000464139057    0.1000
     38 H38       -12.3354   -0.2348   56.9541 H       1  ZINC000464139057    0.1300
     39 H39       -10.4898    1.3474   56.5799 H       1  ZINC000464139057    0.1300
     40 H40        -9.5451    2.6827   53.5627 H       1  ZINC000464139057    0.0800
     41 H41        -8.9513    2.3701   55.2113 H       1  ZINC000464139057    0.0800
     42 H42        -7.5811    0.5689   54.2637 H       1  ZINC000464139057    0.4000
     43 H43        -6.1390    0.1291   52.4815 H       1  ZINC000464139057    0.4000
     44 H44        -6.7274    0.2858   49.8877 H       1  ZINC000464139057    0.0700
     45 H45        -6.4788    2.0100   50.2537 H       1  ZINC000464139057    0.0700
     46 H46        -4.3633    0.1086   51.1925 H       1  ZINC000464139057    0.0700
     47 H47        -4.4679    0.3929   49.4384 H       1  ZINC000464139057    0.0800
     48 H48        -4.6132    2.2938   52.5574 H       1  ZINC000464139057    0.1100
     49 H49        -3.6282    4.7330   51.0932 H       1  ZINC000464139057    0.0700
     50 H50        -3.7065    4.5238   52.8621 H       1  ZINC000464139057    0.0700
     51 H51        -1.3978    4.6401   52.5352 H       1  ZINC000464139057    0.0600
     52 H52        -1.6654    2.8857   52.4491 H       1  ZINC000464139057    0.0600
     53 H53        -1.5781    4.7418   50.0522 H       1  ZINC000464139057    0.0600
     54 H54        -0.2038    3.7901   50.6312 H       1  ZINC000464139057    0.0600
     55 H55        -1.2097    2.6293   48.7833 H       1  ZINC000464139057    0.0600
     56 H56        -1.5560    1.7167   50.2680 H       1  ZINC000464139057    0.0600
     57 H57        -3.4839    2.1942   48.5220 H       1  ZINC000464139057    0.0700
     58 H58        -3.5368    3.7834   49.3288 H       1  ZINC000464139057    0.0700
     59 H59       -10.4425    0.3415   52.4339 H       1  ZINC000464139057    0.1300
     60 H60       -12.2836   -1.2507   52.7878 H       1  ZINC000464139057    0.1300
     61 H61       -11.5776   -4.1945   55.3275 H       1  ZINC000464139057    0.0800
     62 H62       -11.2623   -2.5526   55.9460 H       1  ZINC000464139057    0.1000
     63 H63        -9.8136   -3.7845   57.6932 H       1  ZINC000464139057    0.0800
     64 H64       -10.5968   -4.9346   58.8031 H       1  ZINC000464139057    0.0700
     65 H65       -10.3608   -5.3683   57.0931 H       1  ZINC000464139057    0.0700
@<TRIPOS>BOND
     1     1     2    1
     2     1    33    1
     3     1    34    1
     4     1    35    1
     5     2     3    1
     6     2    32    1
     7     2     4    1
     8     4     5    1
     9     4    36    1
    10     4    37    1
    11     5     6   am
    12     5    28    1
    13     6     7    2
    14     6     8    1
    15     8    27   ar
    16     8     9   ar
    17     9    10   ar
    18     9    38    1
    19    10    11   ar
    20    10    39    1
    21    11    12    1
    22    11    26   ar
    23    12    13    1
    24    12    40    1
    25    12    41    1
    26    13    14   am
    27    13    42    1
    28    14    15    2
    29    14    16   am
    30    16    17    1
    31    16    43    1
    32    17    18    1
    33    17    44    1
    34    17    45    1
    35    18    19    1
    36    18    46    1
    37    18    47    1
    38    19    25    1
    39    19    20    2
    40    20    21    1
    41    20    48    1
    42    21    22    1
    43    21    49    1
    44    21    50    1
    45    22    23    1
    46    22    51    1
    47    22    52    1
    48    23    24    1
    49    23    53    1
    50    23    54    1
    51    24    25    1
    52    24    55    1
    53    24    56    1
    54    25    57    1
    55    25    58    1
    56    26    27   ar
    57    26    59    1
    58    27    60    1
    59    28    29    1
    60    28    61    1
    61    28    62    1
    62    29    30    1
    63    29    31    1
    64    29    32    1
    65    31    63    1
    66    31    64    1
    67    31    65    1
@<TRIPOS>SUBSTRUCTURE
     1 ZINC000464139057        1 TEMP              0 ****  ****    0 ROOT


##########                                Name:    ZINC000621594459
##########                DOCK_Rotatable_Bonds:                  10
##########                         Heavy_Atoms:                  25
##########                    Molecular_Weight:             389.497
##########                DOCK_Rotatable_Bonds:                  10
##########                       Formal_Charge:         -7.7486e-07
##########                     HBond_Acceptors:                  10
##########                        HBond_Donors:                   3
##########                         Heavy_Atoms:                  25
##########                          Grid_Score:          -40.466625
##########                     Grid_vdw_energy:          -39.964432
##########                      Grid_es_energy:           -0.502193
##########           Internal_energy_repulsive:            8.983036

@<TRIPOS>MOLECULE
ZINC000621594459
 48 49 1 0 0
SMALL
USER_CHARGES


@<TRIPOS>ATOM
      1 C1        -11.9478   -4.5032   57.2060 C.3     1  ZINC000621594459   -0.1600
      2 C2        -12.8887   -4.3367   56.0110 C.3     1  ZINC000621594459    0.1300
      3 C3        -14.2902   -3.9811   56.5111 C.3     1  ZINC000621594459   -0.1800
      4 N4        -12.3927   -3.2645   55.1446 N.am    1  ZINC000621594459   -1.1100
      5 S5        -12.7158   -3.2959   53.5208 S.o2    1  ZINC000621594459    2.6200
      6 O6        -12.0479   -4.4597   53.0530 O.2     1  ZINC000621594459   -0.9500
      7 O7        -14.1300   -3.1816   53.4426 O.2     1  ZINC000621594459   -0.9400
      8 C8        -11.9195   -1.8008   52.8720 C.3     1  ZINC000621594459   -0.6600
      9 C9        -10.4739   -2.1197   52.4852 C.3     1  ZINC000621594459    0.1300
     10 N10        -9.6693   -0.8974   52.5525 N.am    1  ZINC000621594459   -0.7200
     11 C11        -8.3481   -0.9450   52.2909 C.2     1  ZINC000621594459    0.5600
     12 O12        -7.8243   -2.0020   51.9977 O.2     1  ZINC000621594459   -0.5200
     13 C13        -7.5357    0.2884   52.3605 C.ar    1  ZINC000621594459   -0.1500
     14 C14        -7.7810    1.2337   53.3574 C.ar    1  ZINC000621594459   -0.0300
     15 C15        -7.0190    2.3824   53.4171 C.ar    1  ZINC000621594459   -0.1400
     16 C16        -6.0139    2.5982   52.4912 C.ar    1  ZINC000621594459    0.0100
     17 C17        -5.7659    1.6651   51.5000 C.ar    1  ZINC000621594459   -0.6800
     18 S18        -4.4838    1.9501   50.3254 S.o2    1  ZINC000621594459    2.7000
     19 O19        -4.5142    0.8521   49.4238 O.2     1  ZINC000621594459   -0.9400
     20 O20        -4.6150    3.3021   49.9083 O.2     1  ZINC000621594459   -0.9500
     21 N21        -3.0439    1.8488   51.1372 N.am    1  ZINC000621594459   -1.0900
     22 C22        -2.7637    2.7616   52.2482 C.3     1  ZINC000621594459    0.0800
     23 C23        -1.3302    3.2757   52.3958 C.3     1  ZINC000621594459   -0.1800
     24 C24        -2.4326    4.2148   51.9023 C.3     1  ZINC000621594459   -0.1900
     25 C25        -6.5163    0.5097   51.4329 C.ar    1  ZINC000621594459    0.0400
     26 H26       -12.3168   -5.3009   57.8507 H       1  ZINC000621594459    0.0700
     27 H27       -10.9493   -4.7564   56.8498 H       1  ZINC000621594459    0.0700
     28 H28       -11.9070   -3.5707   57.7690 H       1  ZINC000621594459    0.0600
     29 H29       -12.9295   -5.2692   55.4481 H       1  ZINC000621594459    0.0900
     30 H30       -14.2494   -3.0486   57.0741 H       1  ZINC000621594459    0.0700
     31 H31       -14.9605   -3.8624   55.6598 H       1  ZINC000621594459    0.0600
     32 H32       -14.6593   -4.7789   57.1558 H       1  ZINC000621594459    0.0700
     33 H33       -11.8750   -2.5362   55.5222 H       1  ZINC000621594459    0.4200
     34 H34       -12.4622   -1.4523   51.9933 H       1  ZINC000621594459    0.1400
     35 H35       -11.9280   -1.0237   53.6363 H       1  ZINC000621594459    0.1400
     36 H36       -10.0683   -2.8601   53.1748 H       1  ZINC000621594459    0.0900
     37 H37       -10.4484   -2.5162   51.4701 H       1  ZINC000621594459    0.0900
     38 H38       -10.0875   -0.0536   52.7852 H       1  ZINC000621594459    0.4000
     39 H39        -8.5658    1.0667   54.0804 H       1  ZINC000621594459    0.1300
     40 H40        -7.2077    3.1148   54.1880 H       1  ZINC000621594459    0.1400
     41 H41        -5.4206    3.4992   52.5422 H       1  ZINC000621594459    0.1500
     42 H42        -2.3861    1.1851   50.8770 H       1  ZINC000621594459    0.4200
     43 H43        -3.3294    2.5780   53.1616 H       1  ZINC000621594459    0.1400
     44 H44        -0.9525    3.4302   53.4065 H       1  ZINC000621594459    0.1100
     45 H45        -0.5956    2.9346   51.6662 H       1  ZINC000621594459    0.1000
     46 H46        -2.4233    4.4916   50.8480 H       1  ZINC000621594459    0.1000
     47 H47        -2.7802    4.9872   52.5882 H       1  ZINC000621594459    0.1000
     48 H48        -6.3216   -0.2180   50.6590 H       1  ZINC000621594459    0.1600
@<TRIPOS>BOND
     1     1     2    1
     2     1    26    1
     3     1    27    1
     4     1    28    1
     5     2     3    1
     6     2     4    1
     7     2    29    1
     8     3    30    1
     9     3    31    1
    10     3    32    1
    11     4     5   am
    12     4    33    1
    13     5     6    2
    14     5     7    2
    15     5     8    1
    16     8     9    1
    17     8    34    1
    18     8    35    1
    19     9    10    1
    20     9    36    1
    21     9    37    1
    22    10    11   am
    23    10    38    1
    24    11    12    2
    25    11    13    1
    26    13    25   ar
    27    13    14   ar
    28    14    15   ar
    29    14    39    1
    30    15    16   ar
    31    15    40    1
    32    16    17   ar
    33    16    41    1
    34    17    18    1
    35    17    25   ar
    36    18    19    2
    37    18    20    2
    38    18    21   am
    39    21    22    1
    40    21    42    1
    41    22    24    1
    42    22    23    1
    43    22    43    1
    44    23    24    1
    45    23    44    1
    46    23    45    1
    47    24    46    1
    48    24    47    1
    49    25    48    1
@<TRIPOS>SUBSTRUCTURE
     1 ZINC000621594459        1 TEMP              0 ****  ****    0 ROOT


##########                                Name:    ZINC001004075025
##########                DOCK_Rotatable_Bonds:                   8
##########                         Heavy_Atoms:                  25
##########                    Molecular_Weight:              349.43
##########                DOCK_Rotatable_Bonds:                   8
##########                       Formal_Charge:         -0.00999999
##########                     HBond_Acceptors:                   7
##########                        HBond_Donors:                   1
##########                         Heavy_Atoms:                  25
##########                          Grid_Score:          -40.465069
##########                     Grid_vdw_energy:          -38.613335
##########                      Grid_es_energy:           -1.851735
##########           Internal_energy_repulsive:           13.338520

@<TRIPOS>MOLECULE
ZINC001004075025
 52 54 1 0 0
SMALL
USER_CHARGES


@<TRIPOS>ATOM
      1 C1        -13.4287   -4.6664   56.2421 C.3     1  ZINC001004075025   -0.1500
      2 C2        -13.2130   -4.2998   54.7723 C.3     1  ZINC001004075025   -0.1200
      3 C3        -12.0313   -3.3351   54.6555 C.3     1  ZINC001004075025    0.0800
      4 H4        -11.1173   -3.8128   55.0084 H       1  ZINC001004075025    0.0700
      5 C5        -11.8616   -2.8679   53.1879 C.3     1  ZINC001004075025   -0.1500
      6 C6        -11.1331   -1.5116   53.3926 C.3     1  ZINC001004075025   -0.1400
      7 C7        -11.7530   -1.0027   54.7118 C.3     1  ZINC001004075025    0.0700
      8 H8        -12.5489   -0.2900   54.4956 H       1  ZINC001004075025    0.1100
      9 C9        -10.6917   -0.3436   55.5545 C.2     1  ZINC001004075025    0.5300
     10 O10       -10.5502   -0.6680   56.7145 O.2     1  ZINC001004075025   -0.5200
     11 N11        -9.8997    0.6065   55.0191 N.am    1  ZINC001004075025   -0.6500
     12 C12        -8.7885    1.4473   55.4894 C.3     1  ZINC001004075025    0.1100
     13 C13        -9.1989    2.4848   54.4351 C.3     1  ZINC001004075025   -0.1400
     14 C14        -8.0222    3.1507   53.7191 C.3     1  ZINC001004075025    0.1300
     15 N15        -7.2193    2.1279   53.0441 N.am    1  ZINC001004075025   -0.7200
     16 C16        -7.1433    2.1103   51.6985 C.2     1  ZINC001004075025    0.6000
     17 O17        -7.7400    2.9443   51.0449 O.2     1  ZINC001004075025   -0.5300
     18 C18        -6.3369    1.0802   51.0193 C.2     1  ZINC001004075025   -0.2700
     19 C19        -5.0936    1.2044   50.4488 C.2     1  ZINC001004075025    0.0700
     20 C20        -4.2498    2.4514   50.3843 C.3     1  ZINC001004075025   -0.0300
     21 C21        -3.3530    2.5249   51.6218 C.3     1  ZINC001004075025   -0.1500
     22 C22        -3.3803    2.4143   49.1259 C.3     1  ZINC001004075025   -0.1500
     23 O23        -4.7815    0.0009   49.9628 O.3     1  ZINC001004075025    0.1000
     24 N24        -5.6408   -0.8247   50.1518 N.2     1  ZINC001004075025   -0.3500
     25 C25        -6.6622   -0.3361   50.7909 C.2     1  ZINC001004075025    0.0200
     26 C26        -9.7620    1.2539   53.7058 C.3     1  ZINC001004075025    0.1100
     27 O27       -12.2894   -2.1373   55.4052 O.3     1  ZINC001004075025   -0.3400
     28 H28       -14.2706   -5.3536   56.3254 H       1  ZINC001004075025    0.0600
     29 H29       -12.5301   -5.1435   56.6331 H       1  ZINC001004075025    0.0500
     30 H30       -13.6390   -3.7631   56.8147 H       1  ZINC001004075025    0.0600
     31 H31       -13.0027   -5.2031   54.1997 H       1  ZINC001004075025    0.0800
     32 H32       -14.1117   -3.8227   54.3813 H       1  ZINC001004075025    0.0700
     33 H33       -11.2426   -3.5648   52.6228 H       1  ZINC001004075025    0.0900
     34 H34       -12.8291   -2.7254   52.7066 H       1  ZINC001004075025    0.0900
     35 H35       -10.0589   -1.6607   53.5009 H       1  ZINC001004075025    0.0800
     36 H36       -11.3501   -0.8271   52.5727 H       1  ZINC001004075025    0.0900
     37 H37        -8.9125    1.7973   56.5141 H       1  ZINC001004075025    0.0900
     38 H38        -7.8066    1.0099   55.3087 H       1  ZINC001004075025    0.0900
     39 H39        -9.9531    3.1941   54.7761 H       1  ZINC001004075025    0.1100
     40 H40        -8.3994    3.8607   52.9831 H       1  ZINC001004075025    0.0800
     41 H41        -7.4040    3.6759   54.4470 H       1  ZINC001004075025    0.0800
     42 H42        -6.7424    1.4634   53.5656 H       1  ZINC001004075025    0.4000
     43 H43        -4.8977    3.3273   50.3526 H       1  ZINC001004075025    0.1300
     44 H44        -2.7051    1.6490   51.6536 H       1  ZINC001004075025    0.0600
     45 H45        -2.7427    3.4268   51.5752 H       1  ZINC001004075025    0.0700
     46 H46        -3.9725    2.5513   52.5183 H       1  ZINC001004075025    0.0600
     47 H47        -2.7324    1.5383   49.1576 H       1  ZINC001004075025    0.0600
     48 H48        -4.0192    2.3619   48.2443 H       1  ZINC001004075025    0.0600
     49 H49        -2.7700    3.3162   49.0792 H       1  ZINC001004075025    0.0700
     50 H50        -7.5611   -0.8575   51.0854 H       1  ZINC001004075025    0.2000
     51 H51        -9.0378    0.7677   53.0522 H       1  ZINC001004075025    0.0900
     52 H52       -10.7166    1.4400   53.2137 H       1  ZINC001004075025    0.0800
@<TRIPOS>BOND
     1     1     2    1
     2     1    28    1
     3     1    29    1
     4     1    30    1
     5     2     3    1
     6     2    31    1
     7     2    32    1
     8     3     4    1
     9     3    27    1
    10     3     5    1
    11     5     6    1
    12     5    33    1
    13     5    34    1
    14     6     7    1
    15     6    35    1
    16     6    36    1
    17     7     8    1
    18     7     9    1
    19     7    27    1
    20     9    10    2
    21     9    11   am
    22    11    26    1
    23    11    12    1
    24    12    13    1
    25    12    37    1
    26    12    38    1
    27    13    14    1
    28    13    26    1
    29    13    39    1
    30    14    15    1
    31    14    40    1
    32    14    41    1
    33    15    16   am
    34    15    42    1
    35    16    17    2
    36    16    18    1
    37    18    25    1
    38    18    19    2
    39    19    20    1
    40    19    23    1
    41    20    21    1
    42    20    22    1
    43    20    43    1
    44    21    44    1
    45    21    45    1
    46    21    46    1
    47    22    47    1
    48    22    48    1
    49    22    49    1
    50    23    24    1
    51    24    25    2
    52    25    50    1
    53    26    51    1
    54    26    52    1
@<TRIPOS>SUBSTRUCTURE
     1 ZINC001004075025        1 TEMP              0 ****  ****    0 ROOT


##########                                Name:    ZINC000046390957
##########                DOCK_Rotatable_Bonds:                   9
##########                         Heavy_Atoms:                  29
##########                    Molecular_Weight:             408.521
##########                DOCK_Rotatable_Bonds:                   9
##########                       Formal_Charge:           0.0100005
##########                     HBond_Acceptors:                   6
##########                        HBond_Donors:                   1
##########                         Heavy_Atoms:                  29
##########                          Grid_Score:          -40.447987
##########                     Grid_vdw_energy:          -38.452900
##########                      Grid_es_energy:           -1.995085
##########           Internal_energy_repulsive:           11.075725

@<TRIPOS>MOLECULE
ZINC000046390957
 53 55 1 0 0
SMALL
USER_CHARGES


@<TRIPOS>ATOM
      1 C1         -6.4238    0.1749   50.6105 C.3     1  ZINC000046390957   -0.1100
      2 C2         -6.0650    1.5361   51.1485 C.ar    1  ZINC000046390957   -0.0600
      3 C3         -5.2024    2.3526   50.4436 C.ar    1  ZINC000046390957   -0.1200
      4 C4         -4.8722    3.6015   50.9367 C.ar    1  ZINC000046390957   -0.1100
      5 C5         -5.4046    4.0375   52.1362 C.ar    1  ZINC000046390957   -0.1200
      6 C6         -6.2681    3.2260   52.8456 C.ar    1  ZINC000046390957   -0.0800
      7 C7         -6.8482    3.7021   54.1525 C.3     1  ZINC000046390957   -0.1100
      8 C8         -6.6058    1.9733   52.3505 C.ar    1  ZINC000046390957    0.1300
      9 N9         -7.4808    1.1489   53.0666 N.am    1  ZINC000046390957   -0.6800
     10 C10        -8.8016    1.1754   52.7999 C.2     1  ZINC000046390957    0.5200
     11 O11        -9.2319    1.9139   51.9393 O.2     1  ZINC000046390957   -0.4900
     12 C12        -9.7441    0.2876   53.5711 C.3     1  ZINC000046390957    0.0700
     13 H13        -9.1697   -0.4326   54.1538 H       1  ZINC000046390957    0.1100
     14 C14       -10.5947    1.1427   54.5124 C.3     1  ZINC000046390957   -0.1700
     15 O15       -10.6098   -0.4198   52.6447 O.3     1  ZINC000046390957   -0.3300
     16 C16       -10.2105   -1.6378   52.2466 C.2     1  ZINC000046390957    0.4700
     17 O17        -9.0318   -1.8945   52.1770 O.2     1  ZINC000046390957   -0.4800
     18 C18       -11.2322   -2.6855   51.8864 C.3     1  ZINC000046390957   -0.0300
     19 C19       -12.3281   -2.6949   52.9209 C.2     1  ZINC000046390957    0.0800
     20 C20       -13.5002   -2.0797   52.7378 C.2     1  ZINC000046390957   -0.2500
     21 S21       -14.4797   -2.3389   54.1794 S.3     1  ZINC000046390957    0.1300
     22 C22       -13.2156   -3.2489   54.8849 C.2     1  ZINC000046390957    0.0600
     23 C23       -13.2694   -3.8866   56.2492 C.3     1  ZINC000046390957    0.0000
     24 C24       -12.0380   -3.5061   57.0303 C.ar    1  ZINC000046390957   -0.0900
     25 C25       -11.7243   -2.1732   57.2201 C.ar    1  ZINC000046390957   -0.0900
     26 C26       -10.5947   -1.8243   57.9365 C.ar    1  ZINC000046390957   -0.1200
     27 C27        -9.7792   -2.8081   58.4634 C.ar    1  ZINC000046390957   -0.1200
     28 C28       -10.0933   -4.1410   58.2744 C.ar    1  ZINC000046390957   -0.1200
     29 C29       -11.2252   -4.4899   57.5616 C.ar    1  ZINC000046390957   -0.1100
     30 N30       -12.2113   -3.3153   54.0776 N.2     1  ZINC000046390957   -0.4500
     31 H31        -7.2341    0.2717   49.8879 H       1  ZINC000046390957    0.0800
     32 H32        -5.5532   -0.2644   50.1235 H       1  ZINC000046390957    0.0700
     33 H33        -6.7437   -0.4673   51.4312 H       1  ZINC000046390957    0.0600
     34 H34        -4.7850    2.0150   49.5064 H       1  ZINC000046390957    0.1300
     35 H35        -4.1969    4.2378   50.3840 H       1  ZINC000046390957    0.1300
     36 H36        -5.1445    5.0133   52.5189 H       1  ZINC000046390957    0.1300
     37 H37        -7.7855    4.2258   53.9647 H       1  ZINC000046390957    0.0700
     38 H38        -7.0340    2.8458   54.8009 H       1  ZINC000046390957    0.0600
     39 H39        -6.1446    4.3789   54.6373 H       1  ZINC000046390957    0.0700
     40 H40        -7.1368    0.5583   53.7549 H       1  ZINC000046390957    0.4100
     41 H41        -9.9448    1.6738   55.2080 H       1  ZINC000046390957    0.0800
     42 H42       -11.1691    1.8629   53.9298 H       1  ZINC000046390957    0.0800
     43 H43       -11.2764    0.5006   55.0703 H       1  ZINC000046390957    0.0800
     44 H44       -11.6572   -2.4577   50.9089 H       1  ZINC000046390957    0.1200
     45 H45       -10.7535   -3.6642   51.8553 H       1  ZINC000046390957    0.1300
     46 H46       -13.7951   -1.5220   51.8612 H       1  ZINC000046390957    0.1800
     47 H47       -14.1569   -3.5390   56.7781 H       1  ZINC000046390957    0.1000
     48 H48       -13.3113   -4.9705   56.1423 H       1  ZINC000046390957    0.1000
     49 H49       -12.3616   -1.4046   56.8084 H       1  ZINC000046390957    0.1200
     50 H50       -10.3493   -0.7830   58.0842 H       1  ZINC000046390957    0.1200
     51 H51        -8.8962   -2.5354   59.0226 H       1  ZINC000046390957    0.1200
     52 H52        -9.4559   -4.9096   58.6858 H       1  ZINC000046390957    0.1200
     53 H53       -11.4706   -5.5312   57.4139 H       1  ZINC000046390957    0.1200
@<TRIPOS>BOND
     1     1     2    1
     2     1    31    1
     3     1    32    1
     4     1    33    1
     5     2     8   ar
     6     2     3   ar
     7     3     4   ar
     8     3    34    1
     9     4     5   ar
    10     4    35    1
    11     5     6   ar
    12     5    36    1
    13     6     7    1
    14     6     8   ar
    15     7    37    1
    16     7    38    1
    17     7    39    1
    18     8     9    1
    19     9    10   am
    20     9    40    1
    21    10    11    2
    22    10    12    1
    23    12    13    1
    24    12    14    1
    25    12    15    1
    26    14    41    1
    27    14    42    1
    28    14    43    1
    29    15    16    1
    30    16    17    2
    31    16    18    1
    32    18    19    1
    33    18    44    1
    34    18    45    1
    35    19    30    1
    36    19    20    2
    37    20    21    1
    38    20    46    1
    39    21    22    1
    40    22    23    1
    41    22    30    2
    42    23    24    1
    43    23    47    1
    44    23    48    1
    45    24    29   ar
    46    24    25   ar
    47    25    26   ar
    48    25    49    1
    49    26    27   ar
    50    26    50    1
    51    27    28   ar
    52    27    51    1
    53    28    29   ar
    54    28    52    1
    55    29    53    1
@<TRIPOS>SUBSTRUCTURE
     1 ZINC000046390957        1 TEMP              0 ****  ****    0 ROOT


##########                                Name:    ZINC001573443776
##########                DOCK_Rotatable_Bonds:                   8
##########                         Heavy_Atoms:                  28
##########                    Molecular_Weight:             386.457
##########                DOCK_Rotatable_Bonds:                   8
##########                       Formal_Charge:          0.00999954
##########                     HBond_Acceptors:                  10
##########                        HBond_Donors:                   3
##########                         Heavy_Atoms:                  28
##########                          Grid_Score:          -40.419434
##########                     Grid_vdw_energy:          -37.710197
##########                      Grid_es_energy:           -2.709237
##########           Internal_energy_repulsive:           39.067886

@<TRIPOS>MOLECULE
ZINC001573443776
 54 56 1 0 0
SMALL
USER_CHARGES


@<TRIPOS>ATOM
      1 C1        -11.7246    6.1658   47.2681 C.3     1  ZINC001573443776   -0.1800
      2 C2        -11.2701    5.4407   48.5085 C.2     1  ZINC001573443776    0.5100
      3 O3        -10.5331    5.9928   49.2980 O.2     1  ZINC001573443776   -0.5400
      4 N4        -11.6825    4.1788   48.7406 N.am    1  ZINC001573443776   -0.6100
      5 C5        -12.5752    3.4970   47.7936 C.3     1  ZINC001573443776    0.1100
      6 C6        -13.7983    2.9772   48.5557 C.3     1  ZINC001573443776   -0.1300
      7 C7        -13.3336    2.1028   49.7225 C.3     1  ZINC001573443776   -0.1000
      8 C8        -12.4856    2.9395   50.6832 C.3     1  ZINC001573443776   -0.1200
      9 H9        -13.0728    3.7828   51.0467 H       1  ZINC001573443776    0.1000
     10 C10       -12.0561    2.0860   51.8487 C.2     1  ZINC001573443776    0.5200
     11 O11       -12.7194    1.1239   52.1727 O.2     1  ZINC001573443776   -0.5300
     12 N12       -10.9348    2.3922   52.5309 N.am    1  ZINC001573443776   -0.7300
     13 C13       -10.5164    1.5616   53.6628 C.3     1  ZINC001573443776    0.1100
     14 C14        -8.9893    1.5615   53.7583 C.3     1  ZINC001573443776    0.1400
     15 H15        -8.6084    2.5464   53.4882 H       1  ZINC001573443776    0.0900
     16 C16        -8.5679    1.2269   55.1906 C.3     1  ZINC001573443776   -0.1700
     17 N17        -8.4427    0.5581   52.8415 N.pl3   1  ZINC001573443776   -0.7200
     18 C18        -7.2662    0.8172   52.1496 C.ar    1  ZINC001573443776    0.4300
     19 C19        -6.7507   -0.1454   51.2863 C.ar    1  ZINC001573443776   -0.2500
     20 C20        -5.5809    0.1201   50.6019 C.ar    1  ZINC001573443776    0.0100
     21 C21        -4.9565    1.3553   50.8054 C.ar    1  ZINC001573443776   -0.1400
     22 C22        -3.6977    1.6884   50.0929 C.2     1  ZINC001573443776    0.2400
     23 N23        -3.5450    2.5913   49.1446 N.2     1  ZINC001573443776   -0.3000
     24 N24        -2.3077    2.5794   48.7844 N.pl3   1  ZINC001573443776   -0.2300
     25 N25        -1.6717    1.6980   49.4742 N.2     1  ZINC001573443776   -0.0500
     26 N26        -2.4936    1.1337   50.2926 N.2     1  ZINC001573443776   -0.2700
     27 C27        -5.5319    2.2678   51.6846 C.ar    1  ZINC001573443776    0.2300
     28 C28        -4.8698    3.6021   51.9133 C.3     1  ZINC001573443776   -0.1200
     29 N29        -6.6522    1.9791   52.3156 N.ar    1  ZINC001573443776   -0.5400
     30 C30       -11.2431    3.4567   49.9424 C.3     1  ZINC001573443776    0.1200
     31 H31       -10.9765    6.0485   46.4841 H       1  ZINC001573443776    0.0900
     32 H32       -12.6733    5.7488   46.9305 H       1  ZINC001573443776    0.0800
     33 H33       -11.8526    7.2248   47.4927 H       1  ZINC001573443776    0.1000
     34 H34       -12.8956    4.1986   47.0234 H       1  ZINC001573443776    0.1000
     35 H35       -12.0493    2.6606   47.3330 H       1  ZINC001573443776    0.0700
     36 H36       -14.3732    3.8202   48.9392 H       1  ZINC001573443776    0.0700
     37 H37       -14.4215    2.3867   47.8842 H       1  ZINC001573443776    0.0800
     38 H38       -14.2026    1.7116   50.2518 H       1  ZINC001573443776    0.0800
     39 H39       -12.7381    1.2738   49.3403 H       1  ZINC001573443776    0.0700
     40 H40       -10.4049    3.1625   52.2726 H       1  ZINC001573443776    0.4000
     41 H41       -10.9380    1.9635   54.5840 H       1  ZINC001573443776    0.0900
     42 H42       -10.8712    0.5414   53.5156 H       1  ZINC001573443776    0.0800
     43 H43        -8.9746    1.9734   55.8728 H       1  ZINC001573443776    0.0700
     44 H44        -8.9488    0.2420   55.4607 H       1  ZINC001573443776    0.0700
     45 H45        -7.4801    1.2269   55.2587 H       1  ZINC001573443776    0.0700
     46 H46        -8.9023   -0.2870   52.7174 H       1  ZINC001573443776    0.4100
     47 H47        -7.2593   -1.0888   51.1536 H       1  ZINC001573443776    0.1400
     48 H48        -5.1582   -0.6086   49.9260 H       1  ZINC001573443776    0.1400
     49 H49        -1.9169    3.1457   48.1006 H       1  ZINC001573443776    0.4800
     50 H50        -5.2541    4.3263   51.1949 H       1  ZINC001573443776    0.0800
     51 H51        -5.0843    3.9454   52.9253 H       1  ZINC001573443776    0.0800
     52 H52        -3.7923    3.4998   51.7850 H       1  ZINC001573443776    0.1100
     53 H53       -10.6102    2.6158   49.6589 H       1  ZINC001573443776    0.0800
     54 H54       -10.6864    4.1335   50.5907 H       1  ZINC001573443776    0.0900
@<TRIPOS>BOND
     1     1     2    1
     2     1    31    1
     3     1    32    1
     4     1    33    1
     5     2     3    2
     6     2     4   am
     7     4    30    1
     8     4     5    1
     9     5     6    1
    10     5    34    1
    11     5    35    1
    12     6     7    1
    13     6    36    1
    14     6    37    1
    15     7     8    1
    16     7    38    1
    17     7    39    1
    18     8     9    1
    19     8    10    1
    20     8    30    1
    21    10    11    2
    22    10    12   am
    23    12    13    1
    24    12    40    1
    25    13    14    1
    26    13    41    1
    27    13    42    1
    28    14    15    1
    29    14    16    1
    30    14    17    1
    31    16    43    1
    32    16    44    1
    33    16    45    1
    34    17    18    1
    35    17    46    1
    36    18    29   ar
    37    18    19   ar
    38    19    20   ar
    39    19    47    1
    40    20    21   ar
    41    20    48    1
    42    21    22    1
    43    21    27   ar
    44    22    26    1
    45    22    23    2
    46    23    24    1
    47    24    25    1
    48    24    49    1
    49    25    26    2
    50    27    28    1
    51    27    29   ar
    52    28    50    1
    53    28    51    1
    54    28    52    1
    55    30    53    1
    56    30    54    1
@<TRIPOS>SUBSTRUCTURE
     1 ZINC001573443776        1 TEMP              0 ****  ****    0 ROOT


##########                                Name:    ZINC001127302705
##########                DOCK_Rotatable_Bonds:                   9
##########                         Heavy_Atoms:                  28
##########                    Molecular_Weight:             398.892
##########                DOCK_Rotatable_Bonds:                   9
##########                       Formal_Charge:          -0.0200002
##########                     HBond_Acceptors:                   7
##########                        HBond_Donors:                   1
##########                         Heavy_Atoms:                  28
##########                          Grid_Score:          -40.409008
##########                     Grid_vdw_energy:          -40.260635
##########                      Grid_es_energy:           -0.148371
##########           Internal_energy_repulsive:           22.448307

@<TRIPOS>MOLECULE
ZINC001127302705
 51 53 1 0 0
SMALL
USER_CHARGES


@<TRIPOS>ATOM
      1 C1        -11.2092   -3.3094   52.5386 C.3     1  ZINC001127302705   -0.1500
      2 C2        -11.3946   -2.8495   53.9861 C.3     1  ZINC001127302705   -0.1400
      3 C3        -11.2123   -1.3326   54.0666 C.3     1  ZINC001127302705    0.1800
      4 C4        -12.4749   -0.6392   53.5510 C.3     1  ZINC001127302705   -0.1600
      5 C5        -10.9640   -0.9251   55.5203 C.3     1  ZINC001127302705    0.0700
      6 O6        -11.5498   -1.8933   56.3929 O.3     1  ZINC001127302705   -0.2800
      7 C7        -10.8270   -2.2585   57.4817 C.ar    1  ZINC001127302705    0.3400
      8 N8        -10.1201   -1.3507   58.1331 N.ar    1  ZINC001127302705   -0.5300
      9 C9         -9.4036   -1.6628   59.1967 C.ar    1  ZINC001127302705    0.1400
     10 C10        -9.3666   -2.9590   59.6700 C.ar    1  ZINC001127302705   -0.2000
     11 C11       -10.0948   -3.9425   59.0148 C.ar    1  ZINC001127302705   -0.0300
     12 C12       -10.8412   -3.5826   57.9053 C.ar    1  ZINC001127302705   -0.1100
     13 Cl13      -11.7711   -4.7710   57.0471 Cl      1  ZINC001127302705   -0.0400
     14 N14       -10.0664   -0.9341   53.2453 N.am    1  ZINC001127302705   -0.7100
     15 C15        -9.6466    0.3467   53.2503 C.2     1  ZINC001127302705    0.6200
     16 O16       -10.2180    1.1709   53.9375 O.2     1  ZINC001127302705   -0.5200
     17 C17        -8.4925    0.7488   52.4210 C.2     1  ZINC001127302705   -0.0200
     18 N18        -8.0812    1.9804   52.1935 N.2     1  ZINC001127302705   -0.2500
     19 N19        -7.0492    1.9663   51.4285 N.pl3   1  ZINC001127302705   -0.2800
     20 C20        -6.3297    3.1573   50.9703 C.3     1  ZINC001127302705    0.1600
     21 C21        -4.8490    2.8772   50.9614 C.ar    1  ZINC001127302705   -0.1200
     22 C22        -4.2263    2.4873   49.7906 C.ar    1  ZINC001127302705   -0.1000
     23 C23        -2.8682    2.2303   49.7825 C.ar    1  ZINC001127302705   -0.1200
     24 C24        -2.1325    2.3637   50.9452 C.ar    1  ZINC001127302705   -0.1100
     25 C25        -2.7550    2.7546   52.1159 C.ar    1  ZINC001127302705   -0.1200
     26 C26        -4.1125    3.0157   52.1230 C.ar    1  ZINC001127302705   -0.0800
     27 C27        -6.7230    0.6959   51.1076 C.2     1  ZINC001127302705   -0.0200
     28 C28        -7.6143   -0.1150   51.7246 C.2     1  ZINC001127302705   -0.1800
     29 H29       -10.2078   -3.0452   52.1988 H       1  ZINC001127302705    0.0500
     30 H30       -11.3391   -4.3900   52.4812 H       1  ZINC001127302705    0.0600
     31 H31       -11.9488   -2.8204   51.9045 H       1  ZINC001127302705    0.0500
     32 H32       -12.3961   -3.1136   54.3258 H       1  ZINC001127302705    0.0900
     33 H33       -10.6550   -3.3385   54.6202 H       1  ZINC001127302705    0.0800
     34 H34       -13.3276   -0.9356   54.1621 H       1  ZINC001127302705    0.0700
     35 H35       -12.3451    0.4416   53.6084 H       1  ZINC001127302705    0.0500
     36 H36       -12.6518   -0.9294   52.5154 H       1  ZINC001127302705    0.0800
     37 H37        -9.8910   -0.8719   55.7045 H       1  ZINC001127302705    0.0800
     38 H38       -11.4133    0.0504   55.7059 H       1  ZINC001127302705    0.0700
     39 H39        -8.8387   -0.8941   59.7031 H       1  ZINC001127302705    0.1700
     40 H40        -8.7770   -3.2053   60.5407 H       1  ZINC001127302705    0.1500
     41 H41       -10.0830   -4.9642   59.3646 H       1  ZINC001127302705    0.1500
     42 H42        -9.6099   -1.5919   52.6980 H       1  ZINC001127302705    0.4100
     43 H43        -6.6570    3.4145   49.9630 H       1  ZINC001127302705    0.1000
     44 H44        -6.5380    3.9890   51.6435 H       1  ZINC001127302705    0.1100
     45 H45        -4.8010    2.3830   48.8821 H       1  ZINC001127302705    0.1200
     46 H46        -2.3817    1.9249   48.8677 H       1  ZINC001127302705    0.1300
     47 H47        -1.0715    2.1623   50.9390 H       1  ZINC001127302705    0.1200
     48 H48        -2.1804    2.8584   53.0244 H       1  ZINC001127302705    0.1300
     49 H49        -4.5988    3.3210   53.0376 H       1  ZINC001127302705    0.1300
     50 H50        -5.9012    0.3844   50.4799 H       1  ZINC001127302705    0.1800
     51 H51        -7.6517   -1.1937   51.6871 H       1  ZINC001127302705    0.1600
@<TRIPOS>BOND
     1     1     2    1
     2     1    29    1
     3     1    30    1
     4     1    31    1
     5     2     3    1
     6     2    32    1
     7     2    33    1
     8     3     4    1
     9     3     5    1
    10     3    14    1
    11     4    34    1
    12     4    35    1
    13     4    36    1
    14     5     6    1
    15     5    37    1
    16     5    38    1
    17     6     7    1
    18     7    12   ar
    19     7     8   ar
    20     8     9   ar
    21     9    10   ar
    22     9    39    1
    23    10    11   ar
    24    10    40    1
    25    11    12   ar
    26    11    41    1
    27    12    13    1
    28    14    15   am
    29    14    42    1
    30    15    16    2
    31    15    17    1
    32    17    28    1
    33    17    18    2
    34    18    19    1
    35    19    20    1
    36    19    27    1
    37    20    21    1
    38    20    43    1
    39    20    44    1
    40    21    26   ar
    41    21    22   ar
    42    22    23   ar
    43    22    45    1
    44    23    24   ar
    45    23    46    1
    46    24    25   ar
    47    24    47    1
    48    25    26   ar
    49    25    48    1
    50    26    49    1
    51    27    28    2
    52    27    50    1
    53    28    51    1
@<TRIPOS>SUBSTRUCTURE
     1 ZINC001127302705        1 TEMP              0 ****  ****    0 ROOT


##########                                Name:    ZINC000772422035
##########                DOCK_Rotatable_Bonds:                  10
##########                         Heavy_Atoms:                  25
##########                    Molecular_Weight:             348.399
##########                DOCK_Rotatable_Bonds:                  10
##########                       Formal_Charge:          0.00999987
##########                     HBond_Acceptors:                   7
##########                        HBond_Donors:                   0
##########                         Heavy_Atoms:                  25
##########                          Grid_Score:          -40.307518
##########                     Grid_vdw_energy:          -38.836811
##########                      Grid_es_energy:           -1.470706
##########           Internal_energy_repulsive:           14.241461

@<TRIPOS>MOLECULE
ZINC000772422035
 49 50 1 0 0
SMALL
USER_CHARGES


@<TRIPOS>ATOM
      1 C1         -2.1148    1.0606   49.2919 C.3     1  ZINC000772422035    0.0300
      2 O2         -2.8984    2.1808   48.8758 O.3     1  ZINC000772422035   -0.3900
      3 C3         -3.7596    2.6976   49.8922 C.3     1  ZINC000772422035    0.0600
      4 C4         -4.7691    1.6229   50.3003 C.3     1  ZINC000772422035    0.0700
      5 O5         -5.6526    2.1511   51.2915 O.3     1  ZINC000772422035   -0.3000
      6 C6         -6.6108    1.3179   51.7694 C.ar    1  ZINC000772422035    0.3300
      7 C7         -7.4755    1.7615   52.7615 C.ar    1  ZINC000772422035   -0.1700
      8 C8         -8.4488    0.9016   53.2405 C.ar    1  ZINC000772422035   -0.0200
      9 C9         -9.4068    1.3445   54.3162 C.3     1  ZINC000772422035    0.1100
     10 O10        -9.4795    0.3262   55.3486 O.3     1  ZINC000772422035   -0.3500
     11 C11       -10.2601    0.5880   56.4089 C.2     1  ZINC000772422035    0.4700
     12 O12       -11.0449    1.5058   56.3692 O.2     1  ZINC000772422035   -0.5000
     13 C13       -10.1575   -0.2629   57.6484 C.3     1  ZINC000772422035   -0.1100
     14 C14       -11.3247   -1.2514   57.6865 C.3     1  ZINC000772422035    0.0000
     15 H15       -11.8313   -1.2526   56.7214 H       1  ZINC000772422035    0.1000
     16 C16       -12.3106   -0.8346   58.7797 C.3     1  ZINC000772422035   -0.1500
     17 C17       -10.8026   -2.6340   57.9815 C.2     1  ZINC000772422035   -0.2000
     18 C18       -11.1212   -3.7956   57.3619 C.2     1  ZINC000772422035   -0.0200
     19 C19       -12.0866   -3.9729   56.2184 C.3     1  ZINC000772422035   -0.0800
     20 O20       -10.4083   -4.7562   57.9667 O.3     1  ZINC000772422035    0.1000
     21 N21        -9.7196   -4.3071   58.8533 N.2     1  ZINC000772422035   -0.3600
     22 C22        -9.8622   -3.0179   58.9648 C.2     1  ZINC000772422035    0.0300
     23 C23        -9.1695   -2.1151   59.9528 C.3     1  ZINC000772422035   -0.0800
     24 C24        -8.5225   -0.3776   52.7072 C.ar    1  ZINC000772422035   -0.1900
     25 C25        -7.6296   -0.7514   51.7224 C.ar    1  ZINC000772422035    0.1400
     26 N26        -6.7160    0.0926   51.2821 N.ar    1  ZINC000772422035   -0.5300
     27 H27        -1.4886    0.7276   48.4642 H       1  ZINC000772422035    0.0900
     28 H28        -1.4832    1.3509   50.1315 H       1  ZINC000772422035    0.0400
     29 H29        -2.7750    0.2488   49.5975 H       1  ZINC000772422035    0.0400
     30 H30        -3.1657    2.9863   50.7595 H       1  ZINC000772422035    0.0600
     31 H31        -4.2911    3.5690   49.5096 H       1  ZINC000772422035    0.0700
     32 H32        -5.3449    1.3150   49.4274 H       1  ZINC000772422035    0.0800
     33 H33        -4.2388    0.7622   50.7077 H       1  ZINC000772422035    0.0800
     34 H34        -7.3895    2.7638   53.1543 H       1  ZINC000772422035    0.1400
     35 H35        -9.0561    2.2798   54.7524 H       1  ZINC000772422035    0.0900
     36 H36       -10.3958    1.4939   53.8829 H       1  ZINC000772422035    0.0900
     37 H37        -9.2162   -0.8123   57.6351 H       1  ZINC000772422035    0.1100
     38 H38       -10.1931    0.3754   58.5312 H       1  ZINC000772422035    0.1100
     39 H39       -11.7771   -0.7100   59.7219 H       1  ZINC000772422035    0.0600
     40 H40       -12.7833    0.1077   58.5025 H       1  ZINC000772422035    0.0800
     41 H41       -13.0739   -1.6044   58.8932 H       1  ZINC000772422035    0.0600
     42 H42       -11.5739   -3.7777   55.2765 H       1  ZINC000772422035    0.0900
     43 H43       -12.4677   -4.9941   56.2198 H       1  ZINC000772422035    0.0900
     44 H44       -12.9164   -3.2753   56.3319 H       1  ZINC000772422035    0.0900
     45 H45        -8.2756   -1.6926   59.4942 H       1  ZINC000772422035    0.0800
     46 H46        -9.8439   -1.3098   60.2440 H       1  ZINC000772422035    0.0800
     47 H47        -8.8881   -2.6901   60.8351 H       1  ZINC000772422035    0.0800
     48 H48        -9.2699   -1.0734   53.0589 H       1  ZINC000772422035    0.1400
     49 H49        -7.6827   -1.7456   51.3040 H       1  ZINC000772422035    0.1700
@<TRIPOS>BOND
     1     1     2    1
     2     1    27    1
     3     1    28    1
     4     1    29    1
     5     2     3    1
     6     3     4    1
     7     3    30    1
     8     3    31    1
     9     4     5    1
    10     4    32    1
    11     4    33    1
    12     5     6    1
    13     6    26   ar
    14     6     7   ar
    15     7     8   ar
    16     7    34    1
    17     8     9    1
    18     8    24   ar
    19     9    10    1
    20     9    35    1
    21     9    36    1
    22    10    11    1
    23    11    12    2
    24    11    13    1
    25    13    14    1
    26    13    37    1
    27    13    38    1
    28    14    15    1
    29    14    16    1
    30    14    17    1
    31    16    39    1
    32    16    40    1
    33    16    41    1
    34    17    22    1
    35    17    18    2
    36    18    19    1
    37    18    20    1
    38    19    42    1
    39    19    43    1
    40    19    44    1
    41    20    21    1
    42    21    22    2
    43    22    23    1
    44    23    45    1
    45    23    46    1
    46    23    47    1
    47    24    25   ar
    48    24    48    1
    49    25    26   ar
    50    25    49    1
@<TRIPOS>SUBSTRUCTURE
     1 ZINC000772422035        1 TEMP              0 ****  ****    0 ROOT


##########                                Name:    ZINC000859496582
##########                DOCK_Rotatable_Bonds:                  10
##########                         Heavy_Atoms:                  26
##########                    Molecular_Weight:             361.438
##########                DOCK_Rotatable_Bonds:                  10
##########                       Formal_Charge:           0.0100006
##########                     HBond_Acceptors:                   6
##########                        HBond_Donors:                   0
##########                         Heavy_Atoms:                  26
##########                          Grid_Score:          -40.306061
##########                     Grid_vdw_energy:          -38.703152
##########                      Grid_es_energy:           -1.602910
##########           Internal_energy_repulsive:           15.629013

@<TRIPOS>MOLECULE
ZINC000859496582
 53 54 1 0 0
SMALL
USER_CHARGES


@<TRIPOS>ATOM
      1 C1         -2.7118    2.8099   49.3735 C.3     1  ZINC000859496582    0.0300
      2 O2         -3.3376    1.6282   49.9396 O.3     1  ZINC000859496582   -0.3600
      3 C3         -4.6091    1.7503   50.3520 C.2     1  ZINC000859496582    0.4600
      4 O4         -5.1831    2.8071   50.2354 O.2     1  ZINC000859496582   -0.5100
      5 C5         -5.3206    0.5694   50.9605 C.3     1  ZINC000859496582   -0.1100
      6 C6         -6.8156    0.6581   50.6475 C.3     1  ZINC000859496582   -0.1100
      7 C7         -7.5381    1.3539   51.8029 C.3     1  ZINC000859496582   -0.1200
      8 C8         -7.7687    0.3530   52.9369 C.3     1  ZINC000859496582    0.0700
      9 O9         -9.1707   -0.0230   52.9729 O.3     1  ZINC000859496582   -0.3500
     10 C10        -9.4644   -1.3059   52.7092 C.2     1  ZINC000859496582    0.4700
     11 O11        -8.6548   -2.0090   52.1525 O.2     1  ZINC000859496582   -0.5000
     12 C12       -10.8042   -1.8693   53.1076 C.3     1  ZINC000859496582   -0.1000
     13 H13       -10.7225   -2.9491   53.2318 H       1  ZINC000859496582    0.1200
     14 C14       -11.8338   -1.5570   52.0192 C.3     1  ZINC000859496582   -0.1100
     15 C15       -13.1870   -2.1570   52.4073 C.3     1  ZINC000859496582   -0.1300
     16 C16       -13.6636   -1.5256   53.7192 C.3     1  ZINC000859496582    0.1100
     17 N17       -12.6149   -1.6954   54.7341 N.am    1  ZINC000859496582   -0.6100
     18 C18       -12.8960   -2.2627   55.9238 C.2     1  ZINC000859496582    0.5700
     19 O19       -14.0261   -2.6397   56.1655 O.2     1  ZINC000859496582   -0.5300
     20 C20       -11.8300   -2.4267   56.9349 C.ar    1  ZINC000859496582   -0.1400
     21 C21       -11.4850   -1.3619   57.7689 C.ar    1  ZINC000859496582   -0.0900
     22 C22       -10.4897   -1.5216   58.7106 C.ar    1  ZINC000859496582   -0.1200
     23 C23        -9.8334   -2.7339   58.8292 C.ar    1  ZINC000859496582   -0.0600
     24 C24        -8.7468   -2.9010   59.8599 C.3     1  ZINC000859496582   -0.1200
     25 C25       -10.1708   -3.7936   58.0060 C.ar    1  ZINC000859496582   -0.1200
     26 C26       -11.1680   -3.6487   57.0637 C.ar    1  ZINC000859496582   -0.0600
     27 C27       -11.2535   -1.2353   54.4278 C.3     1  ZINC000859496582    0.1100
     28 H28        -2.7034    3.6077   50.1161 H       1  ZINC000859496582    0.0600
     29 H29        -1.6884    2.5745   49.0815 H       1  ZINC000859496582    0.1000
     30 H30        -3.2739    3.1344   48.4978 H       1  ZINC000859496582    0.0600
     31 H31        -4.9161   -0.3528   50.5434 H       1  ZINC000859496582    0.1100
     32 H32        -5.1746    0.5743   52.0407 H       1  ZINC000859496582    0.1100
     33 H33        -6.9617    1.2294   49.7309 H       1  ZINC000859496582    0.0800
     34 H34        -7.2200   -0.3459   50.5182 H       1  ZINC000859496582    0.0800
     35 H35        -6.9289    2.1813   52.1667 H       1  ZINC000859496582    0.0800
     36 H36        -8.4979    1.7353   51.4541 H       1  ZINC000859496582    0.0800
     37 H37        -7.1587   -0.5344   52.7679 H       1  ZINC000859496582    0.0700
     38 H38        -7.4904    0.8097   53.8867 H       1  ZINC000859496582    0.0700
     39 H39       -11.9327   -0.4767   51.9121 H       1  ZINC000859496582    0.0800
     40 H40       -11.5039   -1.9866   51.0733 H       1  ZINC000859496582    0.0800
     41 H41       -13.9139   -1.9543   51.6208 H       1  ZINC000859496582    0.0900
     42 H42       -13.0832   -3.2341   52.5386 H       1  ZINC000859496582    0.0700
     43 H43       -13.8548   -0.4637   53.5652 H       1  ZINC000859496582    0.0700
     44 H44       -14.5770   -2.0191   54.0515 H       1  ZINC000859496582    0.1000
     45 H45       -11.9961   -0.4148   57.6768 H       1  ZINC000859496582    0.1300
     46 H46       -10.2218   -0.6985   59.3564 H       1  ZINC000859496582    0.1300
     47 H47        -9.1835   -3.2524   60.7946 H       1  ZINC000859496582    0.0800
     48 H48        -8.0170   -3.6281   59.5038 H       1  ZINC000859496582    0.0700
     49 H49        -8.2538   -1.9433   60.0266 H       1  ZINC000859496582    0.0700
     50 H50        -9.6550   -4.7373   58.1039 H       1  ZINC000859496582    0.1300
     51 H51       -11.4306   -4.4768   56.4220 H       1  ZINC000859496582    0.1300
     52 H52       -10.5772   -1.5369   55.2277 H       1  ZINC000859496582    0.1100
     53 H53       -11.2476   -0.1496   54.3314 H       1  ZINC000859496582    0.0800
@<TRIPOS>BOND
     1     1     2    1
     2     1    28    1
     3     1    29    1
     4     1    30    1
     5     2     3    1
     6     3     4    2
     7     3     5    1
     8     5     6    1
     9     5    31    1
    10     5    32    1
    11     6     7    1
    12     6    33    1
    13     6    34    1
    14     7     8    1
    15     7    35    1
    16     7    36    1
    17     8     9    1
    18     8    37    1
    19     8    38    1
    20     9    10    1
    21    10    11    2
    22    10    12    1
    23    12    13    1
    24    12    27    1
    25    12    14    1
    26    14    15    1
    27    14    39    1
    28    14    40    1
    29    15    16    1
    30    15    41    1
    31    15    42    1
    32    16    17    1
    33    16    43    1
    34    16    44    1
    35    17    18   am
    36    17    27    1
    37    18    19    2
    38    18    20    1
    39    20    26   ar
    40    20    21   ar
    41    21    22   ar
    42    21    45    1
    43    22    23   ar
    44    22    46    1
    45    23    24    1
    46    23    25   ar
    47    24    47    1
    48    24    48    1
    49    24    49    1
    50    25    26   ar
    51    25    50    1
    52    26    51    1
    53    27    52    1
    54    27    53    1
@<TRIPOS>SUBSTRUCTURE
     1 ZINC000859496582        1 TEMP              0 ****  ****    0 ROOT


##########                                Name:    ZINC000538774026
##########                DOCK_Rotatable_Bonds:                  10
##########                         Heavy_Atoms:                  29
##########                    Molecular_Weight:             414.496
##########                DOCK_Rotatable_Bonds:                  10
##########                       Formal_Charge:            0.049999
##########                     HBond_Acceptors:                   9
##########                        HBond_Donors:                   2
##########                         Heavy_Atoms:                  29
##########                          Grid_Score:          -40.256592
##########                     Grid_vdw_energy:          -38.753605
##########                      Grid_es_energy:           -1.502985
##########           Internal_energy_repulsive:           26.568531

@<TRIPOS>MOLECULE
ZINC000538774026
 61 62 1 0 0
SMALL
USER_CHARGES


@<TRIPOS>ATOM
      1 C1         -3.8846    2.7005   48.7876 C.3     1  ZINC000538774026   -0.1500
      2 C2         -4.5186    1.7441   49.7998 C.3     1  ZINC000538774026   -0.1100
      3 C3         -3.7166    1.7750   51.1023 C.3     1  ZINC000538774026   -0.1400
      4 C4         -5.9594    2.1776   50.0776 C.3     1  ZINC000538774026    0.1400
      5 N5         -6.6292    1.1564   50.8867 N.pl3   1  ZINC000538774026   -0.3400
      6 N6         -6.3863   -0.2223   50.8404 N.2     1  ZINC000538774026   -0.2500
      7 C7         -7.1734   -0.8089   51.7055 C.2     1  ZINC000538774026    0.0500
      8 C8         -7.9479    0.1757   52.3357 C.2     1  ZINC000538774026    0.0800
      9 N9         -8.9185   -0.0445   53.3324 N.am    1  ZINC000538774026   -0.6600
     10 C10        -9.9268   -0.9110   53.1113 C.2     1  ZINC000538774026    0.7100
     11 O11        -9.9977   -1.5039   52.0520 O.2     1  ZINC000538774026   -0.5700
     12 N12       -10.8565   -1.1204   54.0643 N.am    1  ZINC000538774026   -0.7300
     13 C13       -11.9535   -2.0610   53.8233 C.3     1  ZINC000538774026    0.1600
     14 C14       -11.7020   -3.3499   54.6087 C.3     1  ZINC000538774026   -0.1300
     15 C15       -11.6237   -3.0296   56.1027 C.3     1  ZINC000538774026   -0.1000
     16 C16       -12.9425   -2.4030   56.5598 C.3     1  ZINC000538774026   -0.0800
     17 C17       -12.8654   -2.0876   58.0315 C.2     1  ZINC000538774026    0.4700
     18 O18       -12.9829   -2.9724   58.8458 O.2     1  ZINC000538774026   -0.5000
     19 O19       -12.6660   -0.8239   58.4375 O.3     1  ZINC000538774026   -0.3500
     20 C20       -11.5239   -0.5813   59.3008 C.3     1  ZINC000538774026    0.1200
     21 C21       -10.3357   -1.4176   58.8218 C.3     1  ZINC000538774026   -0.1800
     22 C22       -11.1552    0.9029   59.2536 C.3     1  ZINC000538774026   -0.1400
     23 C23       -11.8778   -0.9734   60.7367 C.3     1  ZINC000538774026   -0.1800
     24 C24       -13.1940   -1.1142   55.7745 C.3     1  ZINC000538774026   -0.1100
     25 C25       -13.2724   -1.4344   54.2805 C.3     1  ZINC000538774026   -0.1300
     26 C26        -7.5919    1.3793   51.8190 C.2     1  ZINC000538774026   -0.0500
     27 C27        -8.1664    2.7184   52.2031 C.3     1  ZINC000538774026    0.3500
     28 F28        -7.3003    3.3588   53.0958 F       1  ZINC000538774026   -0.1900
     29 F29        -8.3204    3.5058   51.0569 F       1  ZINC000538774026   -0.1900
     30 H30        -2.8581    2.3917   48.5897 H       1  ZINC000538774026    0.0600
     31 H31        -4.4560    2.6785   47.8598 H       1  ZINC000538774026    0.0600
     32 H32        -3.8879    3.7125   49.1925 H       1  ZINC000538774026    0.0600
     33 H33        -4.5153    0.7321   49.3949 H       1  ZINC000538774026    0.0800
     34 H34        -3.7199    2.7870   51.5072 H       1  ZINC000538774026    0.0600
     35 H35        -4.1683    1.0938   51.8235 H       1  ZINC000538774026    0.0600
     36 H36        -2.6901    1.4663   50.9044 H       1  ZINC000538774026    0.0600
     37 H37        -5.9561    3.1245   50.6176 H       1  ZINC000538774026    0.1000
     38 H38        -6.4906    2.2995   49.1337 H       1  ZINC000538774026    0.1000
     39 H39        -7.2191   -1.8701   51.9005 H       1  ZINC000538774026    0.2100
     40 H40        -8.8613    0.4276   54.1778 H       1  ZINC000538774026    0.4100
     41 H41       -10.7993   -0.6484   54.9098 H       1  ZINC000538774026    0.4000
     42 H42       -12.0093   -2.2892   52.7590 H       1  ZINC000538774026    0.1000
     43 H43       -12.5182   -4.0496   54.4294 H       1  ZINC000538774026    0.0800
     44 H44       -10.7625   -3.7963   54.2831 H       1  ZINC000538774026    0.0800
     45 H45       -11.4446   -3.9478   56.6622 H       1  ZINC000538774026    0.0700
     46 H46       -10.8075   -2.3298   56.2821 H       1  ZINC000538774026    0.0700
     47 H47       -13.7587   -3.1029   56.3806 H       1  ZINC000538774026    0.1100
     48 H48       -10.0837   -1.1382   57.7987 H       1  ZINC000538774026    0.0600
     49 H49        -9.4784   -1.2355   59.4699 H       1  ZINC000538774026    0.0700
     50 H50       -10.5985   -2.4749   58.8554 H       1  ZINC000538774026    0.0800
     51 H51       -12.0017    1.4987   59.5948 H       1  ZINC000538774026    0.0700
     52 H52       -10.2978    1.0850   59.9016 H       1  ZINC000538774026    0.0800
     53 H53       -10.9031    1.1823   58.2305 H       1  ZINC000538774026    0.0700
     54 H54       -12.1406   -2.0307   60.7704 H       1  ZINC000538774026    0.0800
     55 H55       -11.0205   -0.7913   61.3848 H       1  ZINC000538774026    0.0700
     56 H56       -12.7244   -0.3775   61.0780 H       1  ZINC000538774026    0.0600
     57 H57       -14.1335   -0.6678   56.1002 H       1  ZINC000538774026    0.0800
     58 H58       -12.3778   -0.4144   55.9538 H       1  ZINC000538774026    0.0600
     59 H59       -13.4515   -0.5162   53.7211 H       1  ZINC000538774026    0.0800
     60 H60       -14.0885   -2.1343   54.1012 H       1  ZINC000538774026    0.0900
     61 H61        -9.1369    2.5747   52.6782 H       1  ZINC000538774026    0.1300
@<TRIPOS>BOND
     1     1     2    1
     2     1    30    1
     3     1    31    1
     4     1    32    1
     5     2     3    1
     6     2     4    1
     7     2    33    1
     8     3    34    1
     9     3    35    1
    10     3    36    1
    11     4     5    1
    12     4    37    1
    13     4    38    1
    14     5    26    1
    15     5     6    1
    16     6     7    2
    17     7     8    1
    18     7    39    1
    19     8     9    1
    20     8    26    2
    21     9    10   am
    22     9    40    1
    23    10    11    2
    24    10    12   am
    25    12    13    1
    26    12    41    1
    27    13    25    1
    28    13    14    1
    29    13    42    1
    30    14    15    1
    31    14    43    1
    32    14    44    1
    33    15    16    1
    34    15    45    1
    35    15    46    1
    36    16    17    1
    37    16    24    1
    38    16    47    1
    39    17    18    2
    40    17    19    1
    41    19    20    1
    42    20    21    1
    43    20    22    1
    44    20    23    1
    45    21    48    1
    46    21    49    1
    47    21    50    1
    48    22    51    1
    49    22    52    1
    50    22    53    1
    51    23    54    1
    52    23    55    1
    53    23    56    1
    54    24    25    1
    55    24    57    1
    56    24    58    1
    57    25    59    1
    58    25    60    1
    59    26    27    1
    60    27    28    1
    61    27    29    1
    62    27    61    1
@<TRIPOS>SUBSTRUCTURE
     1 ZINC000538774026        1 TEMP              0 ****  ****    0 ROOT


##########                                Name:    ZINC000182044395
##########                DOCK_Rotatable_Bonds:                   8
##########                         Heavy_Atoms:                  28
##########                    Molecular_Weight:             398.889
##########                DOCK_Rotatable_Bonds:                   8
##########                       Formal_Charge:          -0.0399999
##########                     HBond_Acceptors:                   6
##########                        HBond_Donors:                   2
##########                         Heavy_Atoms:                  28
##########                          Grid_Score:          -40.226990
##########                     Grid_vdw_energy:          -38.677616
##########                      Grid_es_energy:           -1.549373
##########           Internal_energy_repulsive:           23.204142

@<TRIPOS>MOLECULE
ZINC000182044395
 51 53 1 0 0
SMALL
USER_CHARGES


@<TRIPOS>ATOM
      1 C1         -6.3868    3.3895   54.8110 C.3     1  ZINC000182044395   -0.1800
      2 C2         -7.3644    3.4617   53.6363 C.3     1  ZINC000182044395    0.0800
      3 N3         -7.1746    2.2953   52.7704 N.pl3   1  ZINC000182044395   -0.4800
      4 C4         -8.0295    1.2701   52.8794 C.2     1  ZINC000182044395    0.2500
      5 C5         -7.9204    0.1359   52.1018 C.2     1  ZINC000182044395   -0.3500
      6 C6         -8.8806   -0.9688   52.2517 C.2     1  ZINC000182044395    0.5900
      7 O7         -8.4910   -2.1209   52.2261 O.2     1  ZINC000182044395   -0.5600
      8 N8        -10.1917   -0.7043   52.4174 N.am    1  ZINC000182044395   -0.7200
      9 C9        -11.1477   -1.8043   52.5667 C.3     1  ZINC000182044395    0.1100
     10 H10       -10.7178   -2.7176   52.1556 H       1  ZINC000182044395    0.0900
     11 C11       -11.4604   -2.0105   54.0502 C.3     1  ZINC000182044395   -0.1600
     12 C12       -12.4371   -1.4647   51.8162 C.3     1  ZINC000182044395    0.1100
     13 H13       -12.2657   -1.5492   50.7430 H       1  ZINC000182044395    0.1100
     14 O14       -13.4689   -2.3728   52.2067 O.3     1  ZINC000182044395   -0.5500
     15 C15       -12.8620   -0.0342   52.1537 C.3     1  ZINC000182044395   -0.1100
     16 C16       -12.8755    0.7958   50.8960 C.ar    1  ZINC000182044395   -0.0800
     17 C17       -12.1802    1.9897   50.8482 C.ar    1  ZINC000182044395   -0.1000
     18 C18       -12.1929    2.7512   49.6946 C.ar    1  ZINC000182044395   -0.1200
     19 C19       -12.9003    2.3186   48.5886 C.ar    1  ZINC000182044395   -0.1200
     20 C20       -13.5996    1.1272   48.6380 C.ar    1  ZINC000182044395   -0.1200
     21 C21       -13.5837    0.3637   49.7903 C.ar    1  ZINC000182044395   -0.1200
     22 C22        -6.8243    0.0466   51.1242 C.2     1  ZINC000182044395    0.4400
     23 O23        -6.6820   -0.9360   50.4178 O.2     1  ZINC000182044395   -0.4900
     24 C24        -5.9085    1.1990   51.0318 C.ar    1  ZINC000182044395   -0.1800
     25 C25        -4.8449    1.2046   50.1299 C.ar    1  ZINC000182044395   -0.0200
     26 C26        -4.0047    2.2962   50.0749 C.ar    1  ZINC000182044395   -0.0700
     27 Cl27       -2.6780    2.3104   48.9552 Cl      1  ZINC000182044395   -0.0500
     28 C28        -4.2155    3.3845   50.9109 C.ar    1  ZINC000182044395   -0.0500
     29 C29        -5.2629    3.3918   51.8059 C.ar    1  ZINC000182044395   -0.1600
     30 C30        -6.1236    2.2996   51.8787 C.ar    1  ZINC000182044395    0.1900
     31 H31        -5.3645    3.3801   54.4328 H       1  ZINC000182044395    0.0700
     32 H32        -6.5280    4.2573   55.4552 H       1  ZINC000182044395    0.0800
     33 H33        -6.5713    2.4794   55.3817 H       1  ZINC000182044395    0.0700
     34 H34        -7.1799    4.3719   53.0655 H       1  ZINC000182044395    0.1000
     35 H35        -8.3867    3.4710   54.0144 H       1  ZINC000182044395    0.1100
     36 H36        -8.8314    1.3335   53.6001 H       1  ZINC000182044395    0.1800
     37 H37       -10.5023    0.2144   52.4380 H       1  ZINC000182044395    0.4100
     38 H38       -10.5418   -2.2524   54.5848 H       1  ZINC000182044395    0.0600
     39 H39       -11.8904   -1.0972   54.4613 H       1  ZINC000182044395    0.0600
     40 H40       -12.1718   -2.8289   54.1612 H       1  ZINC000182044395    0.0600
     41 H41       -13.1476   -3.2513   52.4519 H       1  ZINC000182044395    0.3700
     42 H42       -12.1571    0.3959   52.8653 H       1  ZINC000182044395    0.0800
     43 H43       -13.8598   -0.0455   52.5924 H       1  ZINC000182044395    0.0800
     44 H44       -11.6271    2.3274   51.7121 H       1  ZINC000182044395    0.1200
     45 H45       -11.6499    3.6840   49.6574 H       1  ZINC000182044395    0.1200
     46 H46       -12.9102    2.9136   47.6873 H       1  ZINC000182044395    0.1200
     47 H47       -14.1560    0.7914   47.7753 H       1  ZINC000182044395    0.1200
     48 H48       -14.1272   -0.5689   49.8277 H       1  ZINC000182044395    0.1200
     49 H49        -4.6803    0.3589   49.4786 H       1  ZINC000182044395    0.1500
     50 H50        -3.5515    4.2347   50.8589 H       1  ZINC000182044395    0.1500
     51 H51        -5.4165    4.2444   52.4506 H       1  ZINC000182044395    0.1500
@<TRIPOS>BOND
     1     1     2    1
     2     1    31    1
     3     1    32    1
     4     1    33    1
     5     2     3    1
     6     2    34    1
     7     2    35    1
     8     3    30    1
     9     3     4    1
    10     4     5    2
    11     4    36    1
    12     5     6    1
    13     5    22    1
    14     6     7    2
    15     6     8   am
    16     8     9    1
    17     8    37    1
    18     9    10    1
    19     9    11    1
    20     9    12    1
    21    11    38    1
    22    11    39    1
    23    11    40    1
    24    12    13    1
    25    12    14    1
    26    12    15    1
    27    14    41    1
    28    15    16    1
    29    15    42    1
    30    15    43    1
    31    16    21   ar
    32    16    17   ar
    33    17    18   ar
    34    17    44    1
    35    18    19   ar
    36    18    45    1
    37    19    20   ar
    38    19    46    1
    39    20    21   ar
    40    20    47    1
    41    21    48    1
    42    22    23    2
    43    22    24    1
    44    24    30   ar
    45    24    25   ar
    46    25    26   ar
    47    25    49    1
    48    26    27    1
    49    26    28   ar
    50    28    29   ar
    51    28    50    1
    52    29    30   ar
    53    29    51    1
@<TRIPOS>SUBSTRUCTURE
     1 ZINC000182044395        1 TEMP              0 ****  ****    0 ROOT


##########                                Name:    ZINC001289410668
##########                DOCK_Rotatable_Bonds:                  11
##########                         Heavy_Atoms:                  26
##########                    Molecular_Weight:             362.515
##########                DOCK_Rotatable_Bonds:                  11
##########                       Formal_Charge:          -0.0400008
##########                     HBond_Acceptors:                   6
##########                        HBond_Donors:                   1
##########                         Heavy_Atoms:                  26
##########                          Grid_Score:          -40.135468
##########                     Grid_vdw_energy:          -36.594067
##########                      Grid_es_energy:           -3.541401
##########           Internal_energy_repulsive:           12.872001

@<TRIPOS>MOLECULE
ZINC001289410668
 60 61 1 0 0
SMALL
USER_CHARGES


@<TRIPOS>ATOM
      1 C1          3.4573    0.2669   44.1616 C.3     1  ZINC001289410668   -0.1500
      2 C2          3.2417   -0.0124   45.6505 C.3     1  ZINC001289410668   -0.1300
      3 C3          3.6454    1.2190   46.4639 C.3     1  ZINC001289410668   -0.1200
      4 C4          2.4302    2.1307   46.6461 C.3     1  ZINC001289410668   -0.1200
      5 C5          1.7911    1.8623   48.0100 C.3     1  ZINC001289410668   -0.1100
      6 C6          0.6318    2.8360   48.2306 C.3     1  ZINC001289410668   -0.1400
      7 C7         -0.3004    2.2788   49.2754 C.2     1  ZINC001289410668    0.5100
      8 O8          0.0862    1.4155   50.0346 O.2     1  ZINC001289410668   -0.5300
      9 N9         -1.5636    2.7396   49.3661 N.am    1  ZINC001289410668   -0.7200
     10 C10        -2.4693    2.1992   50.3829 C.3     1  ZINC001289410668    0.1400
     11 H11        -1.9411    1.5203   51.0524 H       1  ZINC001289410668    0.1100
     12 C12        -3.6851    1.4982   49.7272 C.3     1  ZINC001289410668    0.0800
     13 N13        -4.7502    1.5598   50.7447 N.am    1  ZINC001289410668   -0.6200
     14 C14        -5.8012    0.7208   50.8336 C.2     1  ZINC001289410668    0.5100
     15 O15        -5.9289   -0.1786   50.0300 O.2     1  ZINC001289410668   -0.5100
     16 C16        -6.8178    0.9002   51.9315 C.3     1  ZINC001289410668    0.0900
     17 N17        -7.7486    1.9705   51.5650 N.pl3   1  ZINC001289410668   -0.4500
     18 C18        -7.8952    2.5299   50.3243 C.2     1  ZINC001289410668   -0.0500
     19 C19        -8.8532    3.4703   50.4316 C.2     1  ZINC001289410668   -0.0200
     20 N20        -9.2800    3.4846   51.7031 N.2     1  ZINC001289410668   -0.4800
     21 C21        -8.6264    2.5854   52.3866 C.2     1  ZINC001289410668    0.2300
     22 C22        -8.8134    2.2889   53.8523 C.3     1  ZINC001289410668   -0.0100
     23 C23        -8.9635    3.6020   54.6232 C.3     1  ZINC001289410668   -0.1400
     24 C24       -10.0706    1.4384   54.0441 C.3     1  ZINC001289410668   -0.1400
     25 C25        -4.4755    2.6878   51.6469 C.3     1  ZINC001289410668    0.1100
     26 C26        -3.1576    3.3403   51.1775 C.3     1  ZINC001289410668   -0.1100
     27 H27        -3.3591    4.1935   50.5297 H       1  ZINC001289410668    0.0900
     28 C28        -2.3058    3.7626   52.3762 C.3     1  ZINC001289410668   -0.1400
     29 H29         3.1698   -0.6104   43.5821 H       1  ZINC001289410668    0.0500
     30 H30         2.8471    1.1180   43.8596 H       1  ZINC001289410668    0.0500
     31 H31         4.5087    0.4920   43.9827 H       1  ZINC001289410668    0.0500
     32 H32         2.1903   -0.2374   45.8294 H       1  ZINC001289410668    0.0600
     33 H33         3.8521   -0.8635   45.9525 H       1  ZINC001289410668    0.0600
     34 H34         4.0135    0.9047   47.4405 H       1  ZINC001289410668    0.0600
     35 H35         4.4305    1.7613   45.9369 H       1  ZINC001289410668    0.0600
     36 H36         2.7461    3.1725   46.5916 H       1  ZINC001289410668    0.0600
     37 H37         1.7038    1.9297   45.8586 H       1  ZINC001289410668    0.0600
     38 H38         1.4170    0.8389   48.0408 H       1  ZINC001289410668    0.0700
     39 H39         2.5359    2.0005   48.7937 H       1  ZINC001289410668    0.0700
     40 H40         1.0229    3.7961   48.5675 H       1  ZINC001289410668    0.1000
     41 H41         0.0891    2.9727   47.2952 H       1  ZINC001289410668    0.1000
     42 H42        -1.8731    3.4292   48.7582 H       1  ZINC001289410668    0.4000
     43 H43        -3.9899    2.0309   48.8264 H       1  ZINC001289410668    0.0800
     44 H44        -3.4442    0.4613   49.4927 H       1  ZINC001289410668    0.0800
     45 H45        -7.3698   -0.0293   52.0710 H       1  ZINC001289410668    0.1200
     46 H46        -6.3086    1.1632   52.8587 H       1  ZINC001289410668    0.1200
     47 H47        -7.3475    2.2678   49.4311 H       1  ZINC001289410668    0.1700
     48 H48        -9.2146    4.1021   49.6336 H       1  ZINC001289410668    0.1700
     49 H49        -7.9461    1.7450   54.2265 H       1  ZINC001289410668    0.0700
     50 H50        -9.8308    4.1459   54.2489 H       1  ZINC001289410668    0.0700
     51 H51        -9.0988    3.3875   55.6832 H       1  ZINC001289410668    0.0600
     52 H52        -8.0679    4.2079   54.4865 H       1  ZINC001289410668    0.0500
     53 H53       -10.9380    1.9823   53.6699 H       1  ZINC001289410668    0.0700
     54 H54        -9.9637    0.5029   53.4949 H       1  ZINC001289410668    0.0600
     55 H55       -10.2060    1.2238   55.1042 H       1  ZINC001289410668    0.0600
     56 H56        -5.2881    3.4121   51.5929 H       1  ZINC001289410668    0.0800
     57 H57        -4.3658    2.3263   52.6694 H       1  ZINC001289410668    0.0800
     58 H58        -2.0908    2.8910   52.9943 H       1  ZINC001289410668    0.0600
     59 H59        -1.3705    4.1966   52.0223 H       1  ZINC001289410668    0.0600
     60 H60        -2.8489    4.5012   52.9657 H       1  ZINC001289410668    0.0700
@<TRIPOS>BOND
     1     1     2    1
     2     1    29    1
     3     1    30    1
     4     1    31    1
     5     2     3    1
     6     2    32    1
     7     2    33    1
     8     3     4    1
     9     3    34    1
    10     3    35    1
    11     4     5    1
    12     4    36    1
    13     4    37    1
    14     5     6    1
    15     5    38    1
    16     5    39    1
    17     6     7    1
    18     6    40    1
    19     6    41    1
    20     7     8    2
    21     7     9   am
    22     9    10    1
    23     9    42    1
    24    10    11    1
    25    10    26    1
    26    10    12    1
    27    12    13    1
    28    12    43    1
    29    12    44    1
    30    13    14   am
    31    13    25    1
    32    14    15    2
    33    14    16    1
    34    16    17    1
    35    16    45    1
    36    16    46    1
    37    17    21    1
    38    17    18    1
    39    18    19    2
    40    18    47    1
    41    19    20    1
    42    19    48    1
    43    20    21    2
    44    21    22    1
    45    22    23    1
    46    22    24    1
    47    22    49    1
    48    23    50    1
    49    23    51    1
    50    23    52    1
    51    24    53    1
    52    24    54    1
    53    24    55    1
    54    25    26    1
    55    25    56    1
    56    25    57    1
    57    26    27    1
    58    26    28    1
    59    28    58    1
    60    28    59    1
    61    28    60    1
@<TRIPOS>SUBSTRUCTURE
     1 ZINC001289410668        1 TEMP              0 ****  ****    0 ROOT


##########                                Name:    ZINC000033150761
##########                DOCK_Rotatable_Bonds:                   7
##########                         Heavy_Atoms:                  29
##########                    Molecular_Weight:             413.407
##########                DOCK_Rotatable_Bonds:                   7
##########                       Formal_Charge:          0.00999993
##########                     HBond_Acceptors:                  10
##########                        HBond_Donors:                   1
##########                         Heavy_Atoms:                  29
##########                          Grid_Score:          -40.112049
##########                     Grid_vdw_energy:          -38.514267
##########                      Grid_es_energy:           -1.597783
##########           Internal_energy_repulsive:            6.023875

@<TRIPOS>MOLECULE
ZINC000033150761
 42 45 1 0 0
SMALL
USER_CHARGES


@<TRIPOS>ATOM
      1 O1        -12.2993   -0.3734   52.4708 O.2     1  ZINC000033150761   -0.5000
      2 C2        -11.9456   -1.5100   52.7030 C.2     1  ZINC000033150761    0.5200
      3 C3        -12.9355   -2.6420   52.6052 C.3     1  ZINC000033150761   -0.1300
      4 C4        -13.8187   -2.6567   53.8545 C.3     1  ZINC000033150761   -0.0100
      5 C5        -13.0023   -3.0985   55.0417 C.2     1  ZINC000033150761    0.1800
      6 N6        -12.3028   -2.3266   55.8354 N.2     1  ZINC000033150761   -0.4400
      7 C7        -11.7455   -3.1540   56.7480 C.2     1  ZINC000033150761    0.2200
      8 C8        -10.8572   -2.7584   57.8701 C.ar    1  ZINC000033150761    0.1900
      9 C9        -10.2362   -3.7396   58.6378 C.ar    1  ZINC000033150761   -0.1300
     10 C10        -9.4103   -3.3555   59.6813 C.ar    1  ZINC000033150761   -0.0700
     11 C11        -9.2339   -2.0010   59.9213 C.ar    1  ZINC000033150761   -0.1500
     12 C12        -9.8824   -1.0797   59.1182 C.ar    1  ZINC000033150761    0.1100
     13 N13       -10.6579   -1.4728   58.1291 N.ar    1  ZINC000033150761   -0.4500
     14 N14       -12.1353   -4.3676   56.4579 N.2     1  ZINC000033150761   -0.3600
     15 O15       -12.8607   -4.3512   55.4860 O.3     1  ZINC000033150761    0.0900
     16 N16       -10.6659   -1.7614   53.0431 N.am    1  ZINC000033150761   -0.6200
     17 C17        -9.7531   -0.7176   53.1333 C.2     1  ZINC000033150761    0.2700
     18 N18        -8.7971   -0.4831   52.2894 N.2     1  ZINC000033150761   -0.5000
     19 C19        -8.0194    0.5617   52.5360 C.2     1  ZINC000033150761    0.1200
     20 C20        -6.8919    0.9377   51.6484 C.ar    1  ZINC000033150761    0.0000
     21 C21        -6.2042   -0.0444   50.9382 C.ar    1  ZINC000033150761   -0.0800
     22 C22        -5.1558    0.3090   50.1129 C.ar    1  ZINC000033150761   -0.1200
     23 C23        -4.7859    1.6374   49.9892 C.ar    1  ZINC000033150761    0.0700
     24 F24        -3.7592    1.9784   49.1801 F       1  ZINC000033150761   -0.1300
     25 C25        -5.4675    2.6199   50.6937 C.ar    1  ZINC000033150761    0.0700
     26 F26        -5.1034    3.9149   50.5695 F       1  ZINC000033150761   -0.1300
     27 C27        -6.5211    2.2752   51.5181 C.ar    1  ZINC000033150761   -0.1000
     28 C28        -8.3233    1.2574   53.6461 C.2     1  ZINC000033150761   -0.2800
     29 S29        -9.7191    0.4975   54.4075 S.3     1  ZINC000033150761    0.2200
     30 H30       -13.5586   -2.5046   51.7214 H       1  ZINC000033150761    0.1200
     31 H31       -12.3994   -3.5879   52.5282 H       1  ZINC000033150761    0.1200
     32 H32       -14.2097   -1.6553   54.0347 H       1  ZINC000033150761    0.1300
     33 H33       -14.6474   -3.3488   53.7054 H       1  ZINC000033150761    0.1200
     34 H34       -10.3964   -4.7858   58.4229 H       1  ZINC000033150761    0.1400
     35 H35        -8.9152   -4.0940   60.2944 H       1  ZINC000033150761    0.1500
     36 H36        -8.5966   -1.6685   60.7275 H       1  ZINC000033150761    0.1400
     37 H37        -9.7475   -0.0242   59.3021 H       1  ZINC000033150761    0.1700
     38 H38       -10.3822   -2.6710   53.2250 H       1  ZINC000033150761    0.4300
     39 H39        -6.4910   -1.0811   51.0338 H       1  ZINC000033150761    0.1400
     40 H40        -4.6226   -0.4523   49.5628 H       1  ZINC000033150761    0.1500
     41 H41        -7.0516    3.0396   52.0664 H       1  ZINC000033150761    0.1600
     42 H42        -7.8044    2.1334   54.0062 H       1  ZINC000033150761    0.1800
@<TRIPOS>BOND
     1     1     2    2
     2     2     3    1
     3     2    16   am
     4     3     4    1
     5     3    30    1
     6     3    31    1
     7     4     5    1
     8     4    32    1
     9     4    33    1
    10     5    15    1
    11     5     6    2
    12     6     7    1
    13     7     8    1
    14     7    14    2
    15     8    13   ar
    16     8     9   ar
    17     9    10   ar
    18     9    34    1
    19    10    11   ar
    20    10    35    1
    21    11    12   ar
    22    11    36    1
    23    12    13   ar
    24    12    37    1
    25    14    15    1
    26    16    17    1
    27    16    38    1
    28    17    29    1
    29    17    18    2
    30    18    19    1
    31    19    20    1
    32    19    28    2
    33    20    27   ar
    34    20    21   ar
    35    21    22   ar
    36    21    39    1
    37    22    23   ar
    38    22    40    1
    39    23    24    1
    40    23    25   ar
    41    25    26    1
    42    25    27   ar
    43    27    41    1
    44    28    29    1
    45    28    42    1
@<TRIPOS>SUBSTRUCTURE
     1 ZINC000033150761        1 TEMP              0 ****  ****    0 ROOT


##########                                Name:    ZINC000981700465
##########                DOCK_Rotatable_Bonds:                   9
##########                         Heavy_Atoms:                  26
##########                    Molecular_Weight:             356.428
##########                DOCK_Rotatable_Bonds:                   9
##########                       Formal_Charge:               -0.01
##########                     HBond_Acceptors:                   8
##########                        HBond_Donors:                   3
##########                         Heavy_Atoms:                  26
##########                          Grid_Score:          -40.089367
##########                     Grid_vdw_energy:          -37.625084
##########                      Grid_es_energy:           -2.464283
##########           Internal_energy_repulsive:           12.573481

@<TRIPOS>MOLECULE
ZINC000981700465
 50 52 1 0 0
SMALL
USER_CHARGES


@<TRIPOS>ATOM
      1 C1        -13.7521    0.2858   50.1572 C.3     1  ZINC000981700465   -0.1500
      2 C2        -13.6006    0.8868   51.5561 C.3     1  ZINC000981700465   -0.1100
      3 C3        -12.2152    0.5476   52.1096 C.3     1  ZINC000981700465   -0.0500
      4 C4        -12.1465   -0.9247   52.4239 C.2     1  ZINC000981700465    0.1400
      5 N5        -13.1659   -1.7223   52.5863 N.2     1  ZINC000981700465   -0.2900
      6 N6        -12.6941   -3.0100   52.8642 N.pl3   1  ZINC000981700465   -0.4600
      7 C7        -11.3518   -2.9802   52.8676 C.2     1  ZINC000981700465    0.1000
      8 C8        -10.9666   -1.6845   52.5880 C.2     1  ZINC000981700465   -0.2900
      9 C9         -9.5831   -1.1846   52.4893 C.2     1  ZINC000981700465    0.5900
     10 O10        -8.7365   -1.8466   51.9204 O.2     1  ZINC000981700465   -0.5300
     11 N11        -9.2567    0.0062   53.0297 N.am    1  ZINC000981700465   -0.7300
     12 C12        -7.8816    0.5021   52.9332 C.3     1  ZINC000981700465    0.1300
     13 C13        -7.7929    1.5456   51.8177 C.3     1  ZINC000981700465   -0.1100
     14 H14        -8.7590    1.6600   51.3260 H       1  ZINC000981700465    0.0900
     15 C15        -7.3080    2.9037   52.3831 C.3     1  ZINC000981700465   -0.1200
     16 C16        -6.7090    3.5989   51.1354 C.3     1  ZINC000981700465   -0.1300
     17 C17        -6.0177    2.4575   50.3615 C.3     1  ZINC000981700465    0.1400
     18 H18        -6.1404    2.6059   49.2886 H       1  ZINC000981700465    0.1000
     19 N19        -4.5935    2.4113   50.7016 N.am    1  ZINC000981700465   -0.7100
     20 C20        -3.6718    2.2816   49.7268 C.2     1  ZINC000981700465    0.5600
     21 O21        -4.0221    2.2014   48.5660 O.2     1  ZINC000981700465   -0.5200
     22 C22        -2.2315    2.2367   50.0705 C.ar    1  ZINC000981700465   -0.1400
     23 C23        -1.7217    2.9665   51.1520 C.ar    1  ZINC000981700465   -0.0600
     24 C24        -0.3640    2.8738   51.4119 C.ar    1  ZINC000981700465    0.0400
     25 N25         0.4022    2.1162   50.6513 N.ar    1  ZINC000981700465   -0.2200
     26 N26        -0.0584    1.4455   49.6596 N.ar    1  ZINC000981700465   -0.2400
     27 C27        -1.3355    1.4601   49.3306 C.ar    1  ZINC000981700465    0.0700
     28 C28        -6.7092    1.1501   50.7934 C.3     1  ZINC000981700465   -0.1200
     29 H29       -13.6381   -0.7969   50.2127 H       1  ZINC000981700465    0.0600
     30 H30       -14.7390    0.5275   49.7629 H       1  ZINC000981700465    0.0600
     31 H31       -12.9870    0.6985   49.4996 H       1  ZINC000981700465    0.0500
     32 H32       -13.7145    1.9694   51.5007 H       1  ZINC000981700465    0.0600
     33 H33       -14.3656    0.4741   52.2137 H       1  ZINC000981700465    0.0600
     34 H34       -11.4565    0.7965   51.3677 H       1  ZINC000981700465    0.1000
     35 H35       -12.0365    1.1217   53.0188 H       1  ZINC000981700465    0.0800
     36 H36       -13.2440   -3.7923   53.0268 H       1  ZINC000981700465    0.4500
     37 H37       -10.6943   -3.8171   53.0510 H       1  ZINC000981700465    0.1800
     38 H38        -9.9323    0.5348   53.4824 H       1  ZINC000981700465    0.4000
     39 H39        -7.5922    0.9573   53.8804 H       1  ZINC000981700465    0.0700
     40 H40        -7.2111   -0.3274   52.7089 H       1  ZINC000981700465    0.0700
     41 H41        -8.1451    3.4775   52.7806 H       1  ZINC000981700465    0.0700
     42 H42        -6.5441    2.7538   53.1459 H       1  ZINC000981700465    0.0700
     43 H43        -7.4989    4.0455   50.5315 H       1  ZINC000981700465    0.0800
     44 H44        -5.9812    4.3541   51.4321 H       1  ZINC000981700465    0.0700
     45 H45        -4.3138    2.4741   51.6282 H       1  ZINC000981700465    0.4000
     46 H46        -2.3658    3.5816   51.7629 H       1  ZINC000981700465    0.1700
     47 H47         0.0669    3.4217   52.2369 H       1  ZINC000981700465    0.1800
     48 H48        -1.6858    0.8815   48.4886 H       1  ZINC000981700465    0.1700
     49 H49        -5.9854    0.4806   51.2579 H       1  ZINC000981700465    0.0800
     50 H50        -7.1656    0.6661   49.9299 H       1  ZINC000981700465    0.0800
@<TRIPOS>BOND
     1     1     2    1
     2     1    29    1
     3     1    30    1
     4     1    31    1
     5     2     3    1
     6     2    32    1
     7     2    33    1
     8     3     4    1
     9     3    34    1
    10     3    35    1
    11     4     8    1
    12     4     5    2
    13     5     6    1
    14     6     7    1
    15     6    36    1
    16     7     8    2
    17     7    37    1
    18     8     9    1
    19     9    10    2
    20     9    11   am
    21    11    12    1
    22    11    38    1
    23    12    13    1
    24    12    39    1
    25    12    40    1
    26    13    14    1
    27    13    28    1
    28    13    15    1
    29    15    16    1
    30    15    41    1
    31    15    42    1
    32    16    17    1
    33    16    43    1
    34    16    44    1
    35    17    18    1
    36    17    19    1
    37    17    28    1
    38    19    20   am
    39    19    45    1
    40    20    21    2
    41    20    22    1
    42    22    27   ar
    43    22    23   ar
    44    23    24   ar
    45    23    46    1
    46    24    25   ar
    47    24    47    1
    48    25    26   ar
    49    26    27   ar
    50    27    48    1
    51    28    49    1
    52    28    50    1
@<TRIPOS>SUBSTRUCTURE
     1 ZINC000981700465        1 TEMP              0 ****  ****    0 ROOT


##########                                Name:    ZINC000434204837
##########                DOCK_Rotatable_Bonds:                   7
##########                         Heavy_Atoms:                  29
##########                    Molecular_Weight:             406.511
##########                DOCK_Rotatable_Bonds:                   7
##########                       Formal_Charge:          -0.0200002
##########                     HBond_Acceptors:                   8
##########                        HBond_Donors:                   0
##########                         Heavy_Atoms:                  29
##########                          Grid_Score:          -39.971840
##########                     Grid_vdw_energy:          -38.880482
##########                      Grid_es_energy:           -1.091359
##########           Internal_energy_repulsive:           26.476952

@<TRIPOS>MOLECULE
ZINC000434204837
 51 54 1 0 0
SMALL
USER_CHARGES


@<TRIPOS>ATOM
      1 C1         -2.6541    1.8879   57.3160 C.3     1  ZINC000434204837   -0.1300
      2 C2         -1.5767    2.4152   56.4036 C.ar    1  ZINC000434204837   -0.0700
      3 C3         -0.2500    2.1271   56.6624 C.ar    1  ZINC000434204837   -0.1200
      4 C4          0.7384    2.6109   55.8253 C.ar    1  ZINC000434204837   -0.1100
      5 C5          0.3997    3.3823   54.7296 C.ar    1  ZINC000434204837   -0.1300
      6 C6         -0.9276    3.6697   54.4703 C.ar    1  ZINC000434204837   -0.0900
      7 C7         -1.9160    3.1825   55.3046 C.ar    1  ZINC000434204837   -0.1000
      8 C8         -3.3627    3.4958   55.0220 C.3     1  ZINC000434204837    0.0100
      9 C9         -3.6518    3.2600   53.5619 C.2     1  ZINC000434204837    0.2000
     10 N10        -4.8065    3.4136   52.9597 N.2     1  ZINC000434204837   -0.4600
     11 C11        -4.5892    3.0912   51.6722 C.2     1  ZINC000434204837    0.1700
     12 C12        -5.6104    3.1070   50.5642 C.3     1  ZINC000434204837   -0.0300
     13 S13        -7.2121    2.5678   51.2122 S.3     1  ZINC000434204837    0.0900
     14 C14        -7.0235    0.8209   51.0796 C.2     1  ZINC000434204837    0.2100
     15 N15        -6.2334    0.1806   50.2448 N.2     1  ZINC000434204837   -0.3300
     16 N16        -6.3367   -1.0885   50.4113 N.2     1  ZINC000434204837   -0.0200
     17 N17        -7.1839   -1.3517   51.3463 N.2     1  ZINC000434204837   -0.0700
     18 N18        -7.6612   -0.1182   51.8229 N.pl3   1  ZINC000434204837   -0.3100
     19 C19        -8.6004    0.0955   52.8419 C.ar    1  ZINC000434204837    0.1100
     20 C20        -8.2955    0.9362   53.9038 C.ar    1  ZINC000434204837   -0.1100
     21 C21        -9.2228    1.1451   54.9059 C.ar    1  ZINC000434204837   -0.0900
     22 C22       -10.4538    0.5175   54.8523 C.ar    1  ZINC000434204837   -0.0600
     23 C23       -11.4635    0.7476   55.9472 C.3     1  ZINC000434204837   -0.0600
     24 C24       -10.7634    0.6914   57.3065 C.3     1  ZINC000434204837   -0.1500
     25 C25       -12.1108    2.1217   55.7634 C.3     1  ZINC000434204837   -0.1500
     26 C26       -10.7605   -0.3204   53.7958 C.ar    1  ZINC000434204837   -0.1000
     27 C27        -9.8393   -0.5287   52.7881 C.ar    1  ZINC000434204837   -0.0900
     28 N28        -3.3367    2.7640   51.5592 N.2     1  ZINC000434204837   -0.3600
     29 O29        -2.7792    2.8597   52.6323 O.3     1  ZINC000434204837    0.0900
     30 H30        -2.9825    0.9102   56.9633 H       1  ZINC000434204837    0.0800
     31 H31        -2.2600    1.7955   58.3281 H       1  ZINC000434204837    0.0700
     32 H32        -3.4990    2.5766   57.3165 H       1  ZINC000434204837    0.0700
     33 H33         0.0147    1.5244   57.5185 H       1  ZINC000434204837    0.1300
     34 H34         1.7752    2.3864   56.0279 H       1  ZINC000434204837    0.1200
     35 H35         1.1718    3.7608   54.0761 H       1  ZINC000434204837    0.1300
     36 H36        -1.1923    4.2727   53.6143 H       1  ZINC000434204837    0.1300
     37 H37        -3.9992    2.8504   55.6274 H       1  ZINC000434204837    0.1200
     38 H38        -3.5634    4.5385   55.2683 H       1  ZINC000434204837    0.1200
     39 H39        -5.7008    4.1182   50.1676 H       1  ZINC000434204837    0.1300
     40 H40        -5.2942    2.4318   49.7691 H       1  ZINC000434204837    0.1400
     41 H41        -7.3339    1.4260   53.9465 H       1  ZINC000434204837    0.1400
     42 H42        -8.9862    1.7990   55.7321 H       1  ZINC000434204837    0.1400
     43 H43       -12.2312   -0.0247   55.9016 H       1  ZINC000434204837    0.0800
     44 H44        -9.9956    1.4638   57.3520 H       1  ZINC000434204837    0.0600
     45 H45       -11.4936    0.8578   58.0984 H       1  ZINC000434204837    0.0600
     46 H46       -10.3022   -0.2876   57.4374 H       1  ZINC000434204837    0.0600
     47 H47       -12.6096    2.1618   54.7950 H       1  ZINC000434204837    0.0600
     48 H48       -12.8410    2.2881   56.5554 H       1  ZINC000434204837    0.0600
     49 H49       -11.3430    2.8940   55.8090 H       1  ZINC000434204837    0.0600
     50 H50       -11.7226   -0.8095   53.7570 H       1  ZINC000434204837    0.1400
     51 H51       -10.0794   -1.1832   51.9632 H       1  ZINC000434204837    0.1400
@<TRIPOS>BOND
     1     1     2    1
     2     1    30    1
     3     1    31    1
     4     1    32    1
     5     2     7   ar
     6     2     3   ar
     7     3     4   ar
     8     3    33    1
     9     4     5   ar
    10     4    34    1
    11     5     6   ar
    12     5    35    1
    13     6     7   ar
    14     6    36    1
    15     7     8    1
    16     8     9    1
    17     8    37    1
    18     8    38    1
    19     9    29    1
    20     9    10    2
    21    10    11    1
    22    11    12    1
    23    11    28    2
    24    12    13    1
    25    12    39    1
    26    12    40    1
    27    13    14    1
    28    14    18    1
    29    14    15    2
    30    15    16    1
    31    16    17    2
    32    17    18    1
    33    18    19    1
    34    19    27   ar
    35    19    20   ar
    36    20    21   ar
    37    20    41    1
    38    21    22   ar
    39    21    42    1
    40    22    23    1
    41    22    26   ar
    42    23    24    1
    43    23    25    1
    44    23    43    1
    45    24    44    1
    46    24    45    1
    47    24    46    1
    48    25    47    1
    49    25    48    1
    50    25    49    1
    51    26    27   ar
    52    26    50    1
    53    27    51    1
    54    28    29    1
@<TRIPOS>SUBSTRUCTURE
     1 ZINC000434204837        1 TEMP              0 ****  ****    0 ROOT


##########                                Name:    ZINC000031496632
##########                DOCK_Rotatable_Bonds:                   8
##########                         Heavy_Atoms:                  30
##########                    Molecular_Weight:             423.539
##########                DOCK_Rotatable_Bonds:                   8
##########                       Formal_Charge:          -0.0100009
##########                     HBond_Acceptors:                   8
##########                        HBond_Donors:                   1
##########                         Heavy_Atoms:                  30
##########                          Grid_Score:          -39.970985
##########                     Grid_vdw_energy:          -39.148579
##########                      Grid_es_energy:           -0.822405
##########           Internal_energy_repulsive:           10.382670

@<TRIPOS>MOLECULE
ZINC000031496632
 55 58 1 0 0
SMALL
USER_CHARGES


@<TRIPOS>ATOM
      1 C1         -2.8403    2.4230   51.5218 C.3     1  ZINC000031496632   -0.1600
      2 C2         -3.8895    2.4971   50.4108 C.3     1  ZINC000031496632    0.1600
      3 C3         -3.2099    2.3028   49.0538 C.3     1  ZINC000031496632   -0.1600
      4 N4         -4.8887    1.4447   50.6116 N.pl3   1  ZINC000031496632   -0.3900
      5 N5         -4.9356    0.2300   49.9207 N.2     1  ZINC000031496632   -0.2300
      6 C6         -5.9446   -0.4817   50.3347 C.2     1  ZINC000031496632    0.0800
      7 C7         -6.6324    0.2839   51.3685 C.ar    1  ZINC000031496632   -0.2100
      8 C8         -7.7580    0.0522   52.1672 C.ar    1  ZINC000031496632    0.0100
      9 C9         -8.1303    1.0371   53.0687 C.ar    1  ZINC000031496632    0.0500
     10 N10        -9.2490    0.8558   53.8924 N.am    1  ZINC000031496632   -0.6600
     11 C11       -10.4840    1.1130   53.4182 C.2     1  ZINC000031496632    0.5500
     12 O12       -10.6274    1.5026   52.2750 O.2     1  ZINC000031496632   -0.4900
     13 C13       -11.6606    0.9222   54.2846 C.ar    1  ZINC000031496632   -0.1300
     14 C14       -11.7785    1.6392   55.4780 C.ar    1  ZINC000031496632   -0.0600
     15 C15       -12.8810    1.4562   56.2837 C.ar    1  ZINC000031496632   -0.1400
     16 C16       -13.8760    0.5633   55.9178 C.ar    1  ZINC000031496632   -0.0600
     17 C17       -13.7748   -0.1529   54.7431 C.ar    1  ZINC000031496632   -0.1500
     18 C18       -12.6736    0.0226   53.9134 C.ar    1  ZINC000031496632   -0.0600
     19 S19       -12.5413   -0.8900   52.4119 S.3     1  ZINC000031496632    0.0900
     20 C20       -12.6212   -2.6131   52.9733 C.3     1  ZINC000031496632   -0.2000
     21 C21       -11.7190   -2.7949   54.1667 C.2     1  ZINC000031496632    0.5500
     22 O22       -10.6709   -2.1884   54.2325 O.2     1  ZINC000031496632   -0.5200
     23 N23       -12.0769   -3.6318   55.1607 N.am    1  ZINC000031496632   -0.6200
     24 C24       -13.3096   -4.4317   55.2052 C.3     1  ZINC000031496632    0.1000
     25 C25       -13.3017   -5.2121   56.5365 C.3     1  ZINC000031496632   -0.1300
     26 C26       -12.3397   -4.3775   57.4227 C.3     1  ZINC000031496632   -0.1300
     27 C27       -11.2940   -3.9015   56.3804 C.3     1  ZINC000031496632    0.1000
     28 C28        -7.3806    2.2095   53.1479 C.ar    1  ZINC000031496632    0.1600
     29 N29        -6.3270    2.4035   52.3860 N.ar    1  ZINC000031496632   -0.4900
     30 C30        -5.9216    1.4923   51.5104 C.ar    1  ZINC000031496632    0.3000
     31 H31        -2.0968    3.2060   51.3724 H       1  ZINC000031496632    0.0800
     32 H32        -3.3244    2.5614   52.4886 H       1  ZINC000031496632    0.0600
     33 H33        -2.3520    1.4488   51.4962 H       1  ZINC000031496632    0.0700
     34 H34        -4.3776    3.4714   50.4364 H       1  ZINC000031496632    0.1100
     35 H35        -2.4664    3.0858   48.9044 H       1  ZINC000031496632    0.0800
     36 H36        -2.7216    1.3286   49.0281 H       1  ZINC000031496632    0.0700
     37 H37        -3.9573    2.3556   48.2622 H       1  ZINC000031496632    0.0600
     38 H38        -6.2225   -1.4621   49.9767 H       1  ZINC000031496632    0.2000
     39 H39        -8.3200   -0.8663   52.0834 H       1  ZINC000031496632    0.1500
     40 H40        -9.1346    0.5451   54.8042 H       1  ZINC000031496632    0.4100
     41 H41       -11.0061    2.3358   55.7687 H       1  ZINC000031496632    0.1300
     42 H42       -12.9704    2.0115   57.2058 H       1  ZINC000031496632    0.1300
     43 H43       -14.7361    0.4271   56.5568 H       1  ZINC000031496632    0.1300
     44 H44       -14.5543   -0.8471   54.4656 H       1  ZINC000031496632    0.1300
     45 H45       -13.6463   -2.8570   53.2524 H       1  ZINC000031496632    0.1100
     46 H46       -12.2968   -3.2728   52.1686 H       1  ZINC000031496632    0.1100
     47 H47       -14.1790   -3.7753   55.1654 H       1  ZINC000031496632    0.0700
     48 H48       -13.3300   -5.1284   54.3671 H       1  ZINC000031496632    0.0700
     49 H49       -14.3002   -5.2411   56.9726 H       1  ZINC000031496632    0.0900
     50 H50       -12.9141   -6.2203   56.3901 H       1  ZINC000031496632    0.0800
     51 H51       -12.8590   -3.5321   57.8743 H       1  ZINC000031496632    0.0800
     52 H52       -11.8726   -5.0000   58.1859 H       1  ZINC000031496632    0.0900
     53 H53       -10.5564   -4.6832   56.1989 H       1  ZINC000031496632    0.0700
     54 H54       -10.8052   -2.9895   56.7227 H       1  ZINC000031496632    0.0800
     55 H55        -7.6721    2.9759   53.8508 H       1  ZINC000031496632    0.1700
@<TRIPOS>BOND
     1     1     2    1
     2     1    31    1
     3     1    32    1
     4     1    33    1
     5     2     3    1
     6     2     4    1
     7     2    34    1
     8     3    35    1
     9     3    36    1
    10     3    37    1
    11     4    30    1
    12     4     5    1
    13     5     6    2
    14     6     7    1
    15     6    38    1
    16     7    30   ar
    17     7     8   ar
    18     8     9   ar
    19     8    39    1
    20     9    10    1
    21     9    28   ar
    22    10    11   am
    23    10    40    1
    24    11    12    2
    25    11    13    1
    26    13    18   ar
    27    13    14   ar
    28    14    15   ar
    29    14    41    1
    30    15    16   ar
    31    15    42    1
    32    16    17   ar
    33    16    43    1
    34    17    18   ar
    35    17    44    1
    36    18    19    1
    37    19    20    1
    38    20    21    1
    39    20    45    1
    40    20    46    1
    41    21    22    2
    42    21    23   am
    43    23    27    1
    44    23    24    1
    45    24    25    1
    46    24    47    1
    47    24    48    1
    48    25    26    1
    49    25    49    1
    50    25    50    1
    51    26    27    1
    52    26    51    1
    53    26    52    1
    54    27    53    1
    55    27    54    1
    56    28    29   ar
    57    28    55    1
    58    29    30   ar
@<TRIPOS>SUBSTRUCTURE
     1 ZINC000031496632        1 TEMP              0 ****  ****    0 ROOT


##########                                Name:    ZINC000770814339
##########                DOCK_Rotatable_Bonds:                  13
##########                         Heavy_Atoms:                  28
##########                    Molecular_Weight:             409.423
##########                DOCK_Rotatable_Bonds:                  13
##########                       Formal_Charge:          -0.0100008
##########                     HBond_Acceptors:                  12
##########                        HBond_Donors:                   4
##########                         Heavy_Atoms:                  28
##########                          Grid_Score:          -39.906982
##########                     Grid_vdw_energy:          -36.821918
##########                      Grid_es_energy:           -3.085065
##########           Internal_energy_repulsive:           10.698215

@<TRIPOS>MOLECULE
ZINC000770814339
 47 48 1 0 0
SMALL
USER_CHARGES


@<TRIPOS>ATOM
      1 C1        -13.7166   -0.0274   51.9380 C.3     1  ZINC000770814339   -0.1500
      2 C2        -13.6262   -1.4137   52.5792 C.3     1  ZINC000770814339    0.0600
      3 O3        -12.2324   -1.8043   52.6932 O.3     1  ZINC000770814339   -0.3500
      4 C4        -11.9784   -3.0033   53.2404 C.2     1  ZINC000770814339    0.4700
      5 O5        -11.1247   -3.7149   52.7666 O.2     1  ZINC000770814339   -0.4800
      6 C6        -12.7581   -3.4619   54.4457 C.3     1  ZINC000770814339    0.0700
      7 O7        -12.6566   -2.4811   55.4801 O.3     1  ZINC000770814339   -0.1800
      8 N8        -11.8890   -2.8971   56.5949 N.2     1  ZINC000770814339   -0.2800
      9 C9        -11.0988   -2.0515   57.1937 C.2     1  ZINC000770814339    0.1800
     10 C10       -11.0022   -0.6550   56.7070 C.2     1  ZINC000770814339    0.5900
     11 O11       -12.0099    0.0069   56.5562 O.2     1  ZINC000770814339   -0.5100
     12 N12        -9.7966   -0.1194   56.4314 N.am    1  ZINC000770814339   -0.7000
     13 C13        -9.7009    1.2616   55.9519 C.3     1  ZINC000770814339    0.1500
     14 C14        -8.8754    1.2997   54.6916 C.ar    1  ZINC000770814339   -0.0600
     15 C15        -9.1668    0.4411   53.6482 C.ar    1  ZINC000770814339   -0.1200
     16 C16        -8.4096    0.4762   52.4922 C.ar    1  ZINC000770814339   -0.0200
     17 C17        -7.3613    1.3702   52.3795 C.ar    1  ZINC000770814339   -0.6700
     18 S18        -6.3958    1.4145   50.9062 S.o2    1  ZINC000770814339    2.7000
     19 N19        -5.2780    2.6226   51.0888 N.am    1  ZINC000770814339   -1.2500
     20 O20        -5.6666    0.1955   50.8676 O.2     1  ZINC000770814339   -0.9600
     21 O21        -7.2700    1.8305   49.8660 O.2     1  ZINC000770814339   -0.9600
     22 C22        -7.0708    2.2298   53.4223 C.ar    1  ZINC000770814339   -0.0200
     23 C23        -7.8305    2.1974   54.5768 C.ar    1  ZINC000770814339   -0.1200
     24 C24       -10.2995   -2.4847   58.3571 C.2     1  ZINC000770814339    0.0600
     25 C25        -9.6589   -1.6651   59.2614 C.2     1  ZINC000770814339   -0.2000
     26 C26        -9.0248   -2.4811   60.1970 C.2     1  ZINC000770814339    0.0400
     27 N27        -9.2589   -3.7320   59.8901 N.2     1  ZINC000770814339   -0.2600
     28 N28       -10.0608   -3.7717   58.7427 N.pl3   1  ZINC000770814339   -0.4400
     29 H29       -14.7629    0.2658   51.8523 H       1  ZINC000770814339    0.0800
     30 H30       -13.1864    0.6951   52.5583 H       1  ZINC000770814339    0.0700
     31 H31       -13.2649   -0.0556   50.9463 H       1  ZINC000770814339    0.0700
     32 H32       -14.0780   -1.3855   53.5707 H       1  ZINC000770814339    0.0700
     33 H33       -14.1565   -2.1362   51.9587 H       1  ZINC000770814339    0.0700
     34 H34       -13.8048   -3.5947   54.1723 H       1  ZINC000770814339    0.1100
     35 H35       -12.3527   -4.4088   54.8020 H       1  ZINC000770814339    0.1100
     36 H36        -8.9921   -0.6482   56.5506 H       1  ZINC000770814339    0.4100
     37 H37       -10.7002    1.6438   55.7434 H       1  ZINC000770814339    0.0900
     38 H38        -9.2275    1.8793   56.7151 H       1  ZINC000770814339    0.0900
     39 H39        -9.9858   -0.2574   53.7363 H       1  ZINC000770814339    0.1400
     40 H40        -8.6368   -0.1952   51.6774 H       1  ZINC000770814339    0.1500
     41 H41        -4.6445    2.8086   50.3783 H       1  ZINC000770814339    0.4200
     42 H42        -5.2569    3.1442   51.9063 H       1  ZINC000770814339    0.4200
     43 H43        -6.2521    2.9286   53.3341 H       1  ZINC000770814339    0.1500
     44 H44        -7.6035    2.8690   55.3916 H       1  ZINC000770814339    0.1400
     45 H45        -9.6496   -0.5852   59.2474 H       1  ZINC000770814339    0.1700
     46 H46        -8.4374   -2.1381   61.0359 H       1  ZINC000770814339    0.1900
     47 H47       -10.3839   -4.5710   58.2982 H       1  ZINC000770814339    0.4500
@<TRIPOS>BOND
     1     1     2    1
     2     1    29    1
     3     1    30    1
     4     1    31    1
     5     2     3    1
     6     2    32    1
     7     2    33    1
     8     3     4    1
     9     4     5    2
    10     4     6    1
    11     6     7    1
    12     6    34    1
    13     6    35    1
    14     7     8    1
    15     8     9    2
    16     9    10    1
    17     9    24    1
    18    10    11    2
    19    10    12   am
    20    12    13    1
    21    12    36    1
    22    13    14    1
    23    13    37    1
    24    13    38    1
    25    14    23   ar
    26    14    15   ar
    27    15    16   ar
    28    15    39    1
    29    16    17   ar
    30    16    40    1
    31    17    18    1
    32    17    22   ar
    33    18    19   am
    34    18    20    2
    35    18    21    2
    36    19    41    1
    37    19    42    1
    38    22    23   ar
    39    22    43    1
    40    23    44    1
    41    24    28    1
    42    24    25    2
    43    25    26    1
    44    25    45    1
    45    26    27    2
    46    26    46    1
    47    27    28    1
    48    28    47    1
@<TRIPOS>SUBSTRUCTURE
     1 ZINC000770814339        1 TEMP              0 ****  ****    0 ROOT


##########                                Name:    ZINC000532153088
##########                DOCK_Rotatable_Bonds:                  11
##########                         Heavy_Atoms:                  29
##########                    Molecular_Weight:             402.484
##########                DOCK_Rotatable_Bonds:                  11
##########                       Formal_Charge:          -0.0200009
##########                     HBond_Acceptors:                   6
##########                        HBond_Donors:                   1
##########                         Heavy_Atoms:                  29
##########                          Grid_Score:          -39.894054
##########                     Grid_vdw_energy:          -39.521870
##########                      Grid_es_energy:           -0.372184
##########           Internal_energy_repulsive:           23.489212

@<TRIPOS>MOLECULE
ZINC000532153088
 57 59 1 0 0
SMALL
USER_CHARGES


@<TRIPOS>ATOM
      1 C1         -3.0791    5.0263   59.4749 C.3     1  ZINC000532153088   -0.1800
      2 C2         -2.3293    3.8333   58.8787 C.3     1  ZINC000532153088    0.0800
      3 C3         -1.8498    2.9171   60.0062 C.3     1  ZINC000532153088   -0.1500
      4 O4         -3.2030    3.1060   58.0128 O.3     1  ZINC000532153088   -0.3800
      5 C5         -2.5978    1.9647   57.4017 C.3     1  ZINC000532153088    0.1000
      6 C6         -1.4171    2.4047   56.5749 C.ar    1  ZINC000532153088   -0.0700
      7 C7         -0.1319    2.1807   57.0314 C.ar    1  ZINC000532153088   -0.1000
      8 C8          0.9512    2.5843   56.2728 C.ar    1  ZINC000532153088   -0.1100
      9 C9          0.7488    3.2113   55.0578 C.ar    1  ZINC000532153088   -0.1200
     10 C10        -0.5368    3.4345   54.6007 C.ar    1  ZINC000532153088   -0.1000
     11 C11        -1.6195    3.0272   55.3571 C.ar    1  ZINC000532153088   -0.1100
     12 C12        -3.0209    3.2704   54.8589 C.3     1  ZINC000532153088    0.1600
     13 N13        -3.0073    3.3833   53.3983 N.am    1  ZINC000532153088   -0.7300
     14 C14        -3.8047    4.2796   52.7843 C.2     1  ZINC000532153088    0.5100
     15 O15        -4.5347    4.9917   53.4407 O.2     1  ZINC000532153088   -0.5000
     16 C16        -3.7893    4.3970   51.2819 C.3     1  ZINC000532153088    0.0300
     17 N17        -3.9941    3.0705   50.6850 N.3     1  ZINC000532153088   -0.4800
     18 C18        -5.3504    2.9444   50.1349 C.3     1  ZINC000532153088    0.1000
     19 C19        -5.9761    1.6658   50.6295 C.ar    1  ZINC000532153088   -0.1300
     20 C20        -5.6255    0.4584   50.0561 C.ar    1  ZINC000532153088   -0.0600
     21 C21        -6.1983   -0.7153   50.5091 C.ar    1  ZINC000532153088   -0.1700
     22 C22        -7.1241   -0.6823   51.5379 C.ar    1  ZINC000532153088    0.1300
     23 F23        -7.6834   -1.8296   51.9808 F       1  ZINC000532153088   -0.1300
     24 C24        -7.4761    0.5267   52.1132 C.ar    1  ZINC000532153088   -0.2000
     25 C25        -6.8980    1.7006   51.6625 C.ar    1  ZINC000532153088    0.1600
     26 F26        -7.2406    2.8812   52.2228 F       1  ZINC000532153088   -0.1100
     27 C27        -2.9814    2.7936   49.6574 C.3     1  ZINC000532153088    0.0200
     28 C28        -1.5173    2.7588   50.0999 C.3     1  ZINC000532153088   -0.2200
     29 C29        -2.2385    1.4586   49.7395 C.3     1  ZINC000532153088   -0.1700
     30 H30        -2.4127    5.5811   60.1353 H       1  ZINC000532153088    0.0700
     31 H31        -3.4207    5.6790   58.6716 H       1  ZINC000532153088    0.0600
     32 H32        -3.9381    4.6686   60.0425 H       1  ZINC000532153088    0.0700
     33 H33        -1.4702    4.1910   58.3110 H       1  ZINC000532153088    0.0600
     34 H34        -2.7088    2.5593   60.5739 H       1  ZINC000532153088    0.0600
     35 H35        -1.3156    2.0672   59.5814 H       1  ZINC000532153088    0.0600
     36 H36        -1.1834    3.4718   60.6667 H       1  ZINC000532153088    0.0700
     37 H37        -2.2626    1.2735   58.1749 H       1  ZINC000532153088    0.0600
     38 H38        -3.3254    1.4674   56.7603 H       1  ZINC000532153088    0.0600
     39 H39         0.0262    1.6908   57.9808 H       1  ZINC000532153088    0.1300
     40 H40         1.9555    2.4100   56.6299 H       1  ZINC000532153088    0.1200
     41 H41         1.5949    3.5271   54.4655 H       1  ZINC000532153088    0.1300
     42 H42        -0.6949    3.9247   53.6515 H       1  ZINC000532153088    0.1300
     43 H43        -3.6606    2.4382   55.1530 H       1  ZINC000532153088    0.0800
     44 H44        -3.4050    4.1943   55.2911 H       1  ZINC000532153088    0.0800
     45 H45        -2.4242    2.8129   52.8732 H       1  ZINC000532153088    0.4000
     46 H46        -4.5875    5.0667   50.9616 H       1  ZINC000532153088    0.0700
     47 H47        -2.8281    4.7965   50.9585 H       1  ZINC000532153088    0.1100
     48 H48        -5.9537    3.7928   50.4578 H       1  ZINC000532153088    0.0900
     49 H49        -5.3008    2.9272   49.0462 H       1  ZINC000532153088    0.0500
     50 H50        -4.9037    0.4317   49.2532 H       1  ZINC000532153088    0.1400
     51 H51        -5.9238   -1.6584   50.0600 H       1  ZINC000532153088    0.1400
     52 H52        -8.1982    0.5534   52.9159 H       1  ZINC000532153088    0.1500
     53 H53        -3.1985    3.1886   48.6650 H       1  ZINC000532153088    0.1200
     54 H54        -0.7705    3.1313   49.3984 H       1  ZINC000532153088    0.1000
     55 H55        -1.3053    2.9415   51.1534 H       1  ZINC000532153088    0.1000
     56 H56        -2.5011    0.7858   50.5559 H       1  ZINC000532153088    0.1000
     57 H57        -1.9663    0.9755   48.8010 H       1  ZINC000532153088    0.1000
@<TRIPOS>BOND
     1     1     2    1
     2     1    30    1
     3     1    31    1
     4     1    32    1
     5     2     3    1
     6     2     4    1
     7     2    33    1
     8     3    34    1
     9     3    35    1
    10     3    36    1
    11     4     5    1
    12     5     6    1
    13     5    37    1
    14     5    38    1
    15     6    11   ar
    16     6     7   ar
    17     7     8   ar
    18     7    39    1
    19     8     9   ar
    20     8    40    1
    21     9    10   ar
    22     9    41    1
    23    10    11   ar
    24    10    42    1
    25    11    12    1
    26    12    13    1
    27    12    43    1
    28    12    44    1
    29    13    14   am
    30    13    45    1
    31    14    15    2
    32    14    16    1
    33    16    17    1
    34    16    46    1
    35    16    47    1
    36    17    18    1
    37    17    27    1
    38    18    19    1
    39    18    48    1
    40    18    49    1
    41    19    25   ar
    42    19    20   ar
    43    20    21   ar
    44    20    50    1
    45    21    22   ar
    46    21    51    1
    47    22    23    1
    48    22    24   ar
    49    24    25   ar
    50    24    52    1
    51    25    26    1
    52    27    29    1
    53    27    28    1
    54    27    53    1
    55    28    29    1
    56    28    54    1
    57    28    55    1
    58    29    56    1
    59    29    57    1
@<TRIPOS>SUBSTRUCTURE
     1 ZINC000532153088        1 TEMP              0 ****  ****    0 ROOT


##########                                Name:    ZINC000672622940
##########                DOCK_Rotatable_Bonds:                   7
##########                         Heavy_Atoms:                  30
##########                    Molecular_Weight:             416.523
##########                DOCK_Rotatable_Bonds:                   7
##########                       Formal_Charge:          -0.0100002
##########                     HBond_Acceptors:                   9
##########                        HBond_Donors:                   1
##########                         Heavy_Atoms:                  30
##########                          Grid_Score:          -39.850403
##########                     Grid_vdw_energy:          -37.463249
##########                      Grid_es_energy:           -2.387153
##########           Internal_energy_repulsive:          152.928223

@<TRIPOS>MOLECULE
ZINC000672622940
 62 65 1 0 0
SMALL
USER_CHARGES


@<TRIPOS>ATOM
      1 C1        -11.2397   -1.5201   58.2758 C.3     1  ZINC000672622940    0.0800
      2 N2        -10.8015   -2.9136   58.1660 N.am    1  ZINC000672622940   -0.6200
      3 C3         -9.9130   -3.4844   59.1815 C.3     1  ZINC000672622940    0.0700
      4 C4        -11.2158   -3.6707   57.1308 C.2     1  ZINC000672622940    0.5200
      5 O5        -10.8543   -4.8249   57.0407 O.2     1  ZINC000672622940   -0.5300
      6 C6        -12.1283   -3.0830   56.0853 C.3     1  ZINC000672622940   -0.1000
      7 H7        -12.1942   -3.7636   55.2365 H       1  ZINC000672622940    0.1000
      8 C8        -13.5216   -2.8761   56.6825 C.3     1  ZINC000672622940   -0.1300
      9 C9        -14.4480   -2.2794   55.6211 C.3     1  ZINC000672622940   -0.1100
     10 C10       -13.8885   -0.9342   55.1538 C.3     1  ZINC000672622940   -0.1300
     11 C11       -12.4951   -1.1412   54.5566 C.3     1  ZINC000672622940    0.1400
     12 H12       -12.5611   -1.8218   53.7078 H       1  ZINC000672622940    0.1000
     13 N13       -11.9594    0.1469   54.1091 N.am    1  ZINC000672622940   -0.6900
     14 C14       -11.2810    0.2276   52.9473 C.2     1  ZINC000672622940    0.5100
     15 O15       -11.1153   -0.7663   52.2711 O.2     1  ZINC000672622940   -0.5100
     16 C16       -10.7329    1.5412   52.4918 C.2     1  ZINC000672622940    0.5100
     17 O17       -11.4677    2.3612   51.9815 O.2     1  ZINC000672622940   -0.5200
     18 N18        -9.4225    1.8153   52.6479 N.am    1  ZINC000672622940   -0.5800
     19 C19        -8.5193    0.8304   53.2585 C.3     1  ZINC000672622940    0.0700
     20 C20        -7.3371    0.5931   52.3135 C.3     1  ZINC000672622940   -0.1200
     21 C21        -6.6756    1.9332   51.9841 C.3     1  ZINC000672622940    0.0000
     22 C22        -5.4913    1.7002   51.0818 C.2     1  ZINC000672622940    0.2000
     23 N23        -5.4890    1.0202   49.9680 N.2     1  ZINC000672622940   -0.2800
     24 N24        -4.3085    1.0279   49.4586 N.2     1  ZINC000672622940   -0.2800
     25 C25        -3.5040    1.7150   50.2255 C.2     1  ZINC000672622940    0.1500
     26 C26        -2.0712    2.1854   50.3527 C.3     1  ZINC000672622940   -0.0400
     27 C27        -2.1343    3.3198   51.4009 C.3     1  ZINC000672622940   -0.1300
     28 C28        -3.4006    2.9419   52.1999 C.3     1  ZINC000672622940    0.1000
     29 N29        -4.2311    2.1631   51.2732 N.pl3   1  ZINC000672622940   -0.4900
     30 C30        -7.6841    2.8419   51.2775 C.3     1  ZINC000672622940   -0.1200
     31 C31        -8.8690    3.1022   52.2051 C.3     1  ZINC000672622940    0.1100
     32 C32       -11.5688   -1.7379   55.6180 C.3     1  ZINC000672622940   -0.1100
     33 H33       -10.5312   -0.8744   57.7568 H       1  ZINC000672622940    0.0600
     34 H34       -12.2264   -1.4128   57.8254 H       1  ZINC000672622940    0.0800
     35 H35       -11.2874   -1.2359   59.3271 H       1  ZINC000672622940    0.0700
     36 H36       -10.5099   -3.9258   59.9797 H       1  ZINC000672622940    0.0600
     37 H37        -9.2884   -4.2533   58.7270 H       1  ZINC000672622940    0.0800
     38 H38        -9.2799   -2.6985   59.5934 H       1  ZINC000672622940    0.0700
     39 H39       -13.9202   -3.8344   57.0154 H       1  ZINC000672622940    0.0800
     40 H40       -13.4556   -2.1954   57.5313 H       1  ZINC000672622940    0.0700
     41 H41       -14.5140   -2.9600   54.7723 H       1  ZINC000672622940    0.0700
     42 H42       -15.4406   -2.1319   56.0466 H       1  ZINC000672622940    0.0700
     43 H43       -14.5484   -0.5091   54.3976 H       1  ZINC000672622940    0.0700
     44 H44       -13.8225   -0.2536   56.0026 H       1  ZINC000672622940    0.0700
     45 H45       -12.0928    0.9415   54.6490 H       1  ZINC000672622940    0.4100
     46 H46        -8.1541    1.2115   54.2121 H       1  ZINC000672622940    0.0700
     47 H47        -9.0537   -0.1062   53.4174 H       1  ZINC000672622940    0.1400
     48 H48        -6.6116   -0.0619   52.7958 H       1  ZINC000672622940    0.0800
     49 H49        -7.6937    0.1279   51.3945 H       1  ZINC000672622940    0.0800
     50 H50        -6.3416    2.4096   52.9059 H       1  ZINC000672622940    0.0900
     51 H51        -1.4336    1.3749   50.7060 H       1  ZINC000672622940    0.1000
     52 H52        -1.7094    2.5679   49.3983 H       1  ZINC000672622940    0.1000
     53 H53        -1.2519    3.3091   52.0407 H       1  ZINC000672622940    0.1100
     54 H54        -2.2527    4.2902   50.9186 H       1  ZINC000672622940    0.0900
     55 H55        -3.1325    2.3404   53.0686 H       1  ZINC000672622940    0.1000
     56 H56        -3.9314    3.8412   52.5124 H       1  ZINC000672622940    0.1000
     57 H57        -7.2056    3.7875   51.0222 H       1  ZINC000672622940    0.0800
     58 H58        -8.0373    2.3554   50.3682 H       1  ZINC000672622940    0.0800
     59 H59        -9.6340    3.6663   51.6713 H       1  ZINC000672622940    0.1000
     60 H60        -8.5349    3.6683   53.0746 H       1  ZINC000672622940    0.0800
     61 H61       -11.5028   -1.0572   56.4668 H       1  ZINC000672622940    0.0800
     62 H62       -10.5761   -1.8852   55.1925 H       1  ZINC000672622940    0.0800
@<TRIPOS>BOND
     1     1     2    1
     2     1    33    1
     3     1    34    1
     4     1    35    1
     5     2     3    1
     6     2     4   am
     7     3    36    1
     8     3    37    1
     9     3    38    1
    10     4     5    2
    11     4     6    1
    12     6     7    1
    13     6    32    1
    14     6     8    1
    15     8     9    1
    16     8    39    1
    17     8    40    1
    18     9    10    1
    19     9    41    1
    20     9    42    1
    21    10    11    1
    22    10    43    1
    23    10    44    1
    24    11    12    1
    25    11    13    1
    26    11    32    1
    27    13    14   am
    28    13    45    1
    29    14    15    2
    30    14    16    1
    31    16    17    2
    32    16    18   am
    33    18    31    1
    34    18    19    1
    35    19    20    1
    36    19    46    1
    37    19    47    1
    38    20    21    1
    39    20    48    1
    40    20    49    1
    41    21    22    1
    42    21    30    1
    43    21    50    1
    44    22    29    1
    45    22    23    2
    46    23    24    1
    47    24    25    2
    48    25    29    1
    49    25    26    1
    50    26    27    1
    51    26    51    1
    52    26    52    1
    53    27    28    1
    54    27    53    1
    55    27    54    1
    56    28    29    1
    57    28    55    1
    58    28    56    1
    59    30    31    1
    60    30    57    1
    61    30    58    1
    62    31    59    1
    63    31    60    1
    64    32    61    1
    65    32    62    1
@<TRIPOS>SUBSTRUCTURE
     1 ZINC000672622940        1 TEMP              0 ****  ****    0 ROOT


##########                                Name:    ZINC000564088286
##########                DOCK_Rotatable_Bonds:                   6
##########                         Heavy_Atoms:                  25
##########                    Molecular_Weight:             398.934
##########                DOCK_Rotatable_Bonds:                   6
##########                       Formal_Charge:               -0.05
##########                     HBond_Acceptors:                   8
##########                        HBond_Donors:                   1
##########                         Heavy_Atoms:                  25
##########                          Grid_Score:          -39.803204
##########                     Grid_vdw_energy:          -38.645130
##########                      Grid_es_energy:           -1.158072
##########           Internal_energy_repulsive:           14.212321

@<TRIPOS>MOLECULE
ZINC000564088286
 44 46 1 0 0
SMALL
USER_CHARGES


@<TRIPOS>ATOM
      1 C1         -9.1019   -2.7855   60.0013 C.3     1  ZINC000564088286   -0.1600
      2 C2         -9.6150   -2.0198   58.7800 C.3     1  ZINC000564088286    0.1100
      3 N3        -10.5225   -2.8764   58.0126 N.am    1  ZINC000564088286   -1.1200
      4 S4        -11.7188   -2.1982   57.0899 S.o2    1  ZINC000564088286    2.7000
      5 O5        -12.3169   -3.2627   56.3630 O.2     1  ZINC000564088286   -0.9600
      6 O6        -12.4510   -1.3376   57.9515 O.2     1  ZINC000564088286   -0.9600
      7 C7        -10.9353   -1.1617   55.8998 C.ar    1  ZINC000564088286   -0.6800
      8 C8        -10.1051   -0.1373   56.3153 C.ar    1  ZINC000564088286   -0.0200
      9 C9         -9.4904    0.6759   55.3816 C.ar    1  ZINC000564088286   -0.1300
     10 C10        -9.7053    0.4645   54.0325 C.ar    1  ZINC000564088286   -0.0100
     11 C11        -9.0356    1.3513   53.0147 C.3     1  ZINC000564088286   -0.1100
     12 C12        -7.9911    0.5609   52.2695 C.2     1  ZINC000564088286    0.5200
     13 O13        -7.7547   -0.5848   52.5898 O.2     1  ZINC000564088286   -0.5200
     14 N14        -7.3199    1.1269   51.2471 N.am    1  ZINC000564088286   -0.6200
     15 C15        -7.5911    2.5145   50.8423 C.3     1  ZINC000564088286    0.1200
     16 C16        -6.3364    3.3533   51.1040 C.3     1  ZINC000564088286   -0.0700
     17 C17        -5.1240    2.6021   50.5960 C.2     1  ZINC000564088286   -0.1600
     18 C18        -5.0854    1.2824   50.3334 C.2     1  ZINC000564088286   -0.1200
     19 C19        -3.8461    0.8345   49.8856 C.2     1  ZINC000564088286   -0.1100
     20 C20        -2.9021    1.7659   49.7790 C.2     1  ZINC000564088286   -0.1500
     21 Cl21       -1.2745    1.4849   49.2445 Cl      1  ZINC000564088286   -0.0100
     22 S22        -3.5552    3.3241   50.2616 S.3     1  ZINC000564088286    0.1600
     23 C23        -6.2931    0.3757   50.5111 C.3     1  ZINC000564088286    0.1700
     24 C24       -10.5344   -0.5608   53.6171 C.ar    1  ZINC000564088286   -0.1300
     25 C25       -11.1461   -1.3764   54.5506 C.ar    1  ZINC000564088286   -0.0200
     26 H26        -9.9448   -3.0758   60.6286 H       1  ZINC000564088286    0.0600
     27 H27        -8.5688   -3.6777   59.6732 H       1  ZINC000564088286    0.0600
     28 H28        -8.4266   -2.1482   60.5723 H       1  ZINC000564088286    0.0700
     29 H29       -10.1481   -1.1275   59.1082 H       1  ZINC000564088286    0.0800
     30 H30        -8.7721   -1.7295   58.1528 H       1  ZINC000564088286    0.0700
     31 H31       -10.4228   -3.8407   58.0449 H       1  ZINC000564088286    0.4200
     32 H32        -9.9372    0.0278   57.3692 H       1  ZINC000564088286    0.1400
     33 H33        -8.8424    1.4766   55.7062 H       1  ZINC000564088286    0.1300
     34 H34        -9.7801    1.7235   52.3111 H       1  ZINC000564088286    0.1100
     35 H35        -8.5619    2.1923   53.5212 H       1  ZINC000564088286    0.1100
     36 H36        -7.8367    2.5447   49.7808 H       1  ZINC000564088286    0.0800
     37 H37        -8.4236    2.9095   51.4246 H       1  ZINC000564088286    0.1100
     38 H38        -6.4197    4.3065   50.5818 H       1  ZINC000564088286    0.0900
     39 H39        -6.2331    3.5307   52.1745 H       1  ZINC000564088286    0.0900
     40 H40        -3.6626   -0.2013   49.6409 H       1  ZINC000564088286    0.1500
     41 H41        -6.0079   -0.5130   51.0742 H       1  ZINC000564088286    0.1000
     42 H42        -6.6840    0.0859   49.5358 H       1  ZINC000564088286    0.0900
     43 H43       -10.7020   -0.7261   52.5631 H       1  ZINC000564088286    0.1300
     44 H44       -11.7938   -2.1773   54.2261 H       1  ZINC000564088286    0.1400
@<TRIPOS>BOND
     1     1     2    1
     2     1    26    1
     3     1    27    1
     4     1    28    1
     5     2     3    1
     6     2    29    1
     7     2    30    1
     8     3     4   am
     9     3    31    1
    10     4     5    2
    11     4     6    2
    12     4     7    1
    13     7    25   ar
    14     7     8   ar
    15     8     9   ar
    16     8    32    1
    17     9    10   ar
    18     9    33    1
    19    10    11    1
    20    10    24   ar
    21    11    12    1
    22    11    34    1
    23    11    35    1
    24    12    13    2
    25    12    14   am
    26    14    23    1
    27    14    15    1
    28    15    16    1
    29    15    36    1
    30    15    37    1
    31    16    17    1
    32    16    38    1
    33    16    39    1
    34    17    22    1
    35    17    18    2
    36    18    19    1
    37    18    23    1
    38    19    20    2
    39    19    40    1
    40    20    21    1
    41    20    22    1
    42    23    41    1
    43    23    42    1
    44    24    25   ar
    45    24    43    1
    46    25    44    1
@<TRIPOS>SUBSTRUCTURE
     1 ZINC000564088286        1 TEMP              0 ****  ****    0 ROOT


##########                                Name:    ZINC000477589488
##########                DOCK_Rotatable_Bonds:                   6
##########                         Heavy_Atoms:                  32
##########                    Molecular_Weight:             423.517
##########                DOCK_Rotatable_Bonds:                   6
##########                       Formal_Charge:        -8.19564e-07
##########                     HBond_Acceptors:                   6
##########                        HBond_Donors:                   1
##########                         Heavy_Atoms:                  32
##########                          Grid_Score:          -39.750046
##########                     Grid_vdw_energy:          -34.781910
##########                      Grid_es_energy:           -4.968137
##########           Internal_energy_repulsive:           27.891777

@<TRIPOS>MOLECULE
ZINC000477589488
 57 61 1 0 0
SMALL
USER_CHARGES


@<TRIPOS>ATOM
      1 O1        -11.9743    0.0435   55.7113 O.2     1  ZINC000477589488   -0.5800
      2 C2        -10.9463    0.5785   56.0794 C.2     1  ZINC000477589488    0.7100
      3 N3        -10.5456    0.4586   57.3606 N.am    1  ZINC000477589488   -0.7400
      4 C4        -11.3517   -0.3113   58.3112 C.3     1  ZINC000477589488    0.2500
      5 H5        -12.3492   -0.4662   57.8998 H       1  ZINC000477589488    0.1100
      6 C6        -11.4561    0.4458   59.6101 C.ar    1  ZINC000477589488   -0.0900
      7 C7        -12.3636    0.0448   60.5727 C.ar    1  ZINC000477589488   -0.1000
      8 C8        -12.4594    0.7393   61.7641 C.ar    1  ZINC000477589488   -0.1200
      9 C9        -11.6473    1.8344   61.9931 C.ar    1  ZINC000477589488   -0.1200
     10 C10       -10.7392    2.2347   61.0309 C.ar    1  ZINC000477589488   -0.1200
     11 C11       -10.6404    1.5376   59.8411 C.ar    1  ZINC000477589488   -0.1000
     12 C12       -10.6977   -1.6462   58.5590 C.ar    1  ZINC000477589488   -0.0700
     13 C13       -11.2480   -2.8155   58.0076 C.ar    1  ZINC000477589488   -0.0400
     14 C14       -12.4100   -2.7734   57.2183 C.ar    1  ZINC000477589488   -0.1100
     15 C15       -12.9144   -3.9263   56.7004 C.ar    1  ZINC000477589488   -0.1100
     16 C16       -12.2959   -5.1521   56.9410 C.ar    1  ZINC000477589488   -0.1100
     17 C17       -11.1697   -5.2315   57.7008 C.ar    1  ZINC000477589488   -0.1100
     18 C18       -10.6187   -4.0619   58.2520 C.ar    1  ZINC000477589488   -0.0500
     19 C19        -9.4570   -4.1040   59.0410 C.ar    1  ZINC000477589488   -0.1000
     20 C20        -8.9518   -2.9505   59.5580 C.ar    1  ZINC000477589488   -0.1100
     21 C21        -9.5675   -1.7247   59.3137 C.ar    1  ZINC000477589488   -0.1100
     22 N22       -10.2047    1.2867   55.2048 N.am    1  ZINC000477589488   -0.6300
     23 C23        -8.9518    1.9317   55.6261 C.3     1  ZINC000477589488    0.1300
     24 C24        -7.8433    1.5268   54.6486 C.3     1  ZINC000477589488    0.0500
     25 N25        -8.2689    1.8333   53.2764 N.3     1  ZINC000477589488   -0.4700
     26 C26        -7.2291    1.6319   52.3754 C.ar    1  ZINC000477589488    0.2500
     27 C27        -6.0162    2.2985   52.5450 C.ar    1  ZINC000477589488   -0.1300
     28 C28        -5.0117    2.0632   51.6194 C.ar    1  ZINC000477589488   -0.0900
     29 C29        -5.2742    1.1798   50.5820 C.ar    1  ZINC000477589488    0.0200
     30 N30        -6.4515    0.5924   50.4981 N.ar    1  ZINC000477589488   -0.2200
     31 N31        -7.3843    0.8012   51.3546 N.ar    1  ZINC000477589488   -0.2800
     32 C32        -9.4525    1.0498   52.8980 C.3     1  ZINC000477589488    0.0400
     33 C33       -10.6238    1.4300   53.8023 C.3     1  ZINC000477589488    0.1200
     34 H34        -9.7234    0.8819   57.6533 H       1  ZINC000477589488    0.3900
     35 H35       -12.9980   -0.8106   60.3938 H       1  ZINC000477589488    0.1100
     36 H36       -13.1689    0.4265   62.5159 H       1  ZINC000477589488    0.1200
     37 H37       -11.7226    2.3773   62.9236 H       1  ZINC000477589488    0.1200
     38 H38       -10.1050    3.0904   61.2096 H       1  ZINC000477589488    0.1200
     39 H39        -9.9309    1.8504   59.0893 H       1  ZINC000477589488    0.1200
     40 H40       -12.9004   -1.8309   57.0239 H       1  ZINC000477589488    0.1300
     41 H41       -13.8074   -3.8912   56.0941 H       1  ZINC000477589488    0.1300
     42 H42       -12.7169   -6.0523   56.5183 H       1  ZINC000477589488    0.1300
     43 H43       -10.7017   -6.1884   57.8794 H       1  ZINC000477589488    0.1300
     44 H44        -8.9676   -5.0467   59.2367 H       1  ZINC000477589488    0.1300
     45 H45        -8.0589   -2.9858   60.1645 H       1  ZINC000477589488    0.1300
     46 H46        -9.1459   -0.8242   59.7355 H       1  ZINC000477589488    0.1200
     47 H47        -9.0748    3.0147   55.6121 H       1  ZINC000477589488    0.0800
     48 H48        -8.6910    1.6029   56.6321 H       1  ZINC000477589488    0.1100
     49 H49        -6.9339    2.0816   54.8798 H       1  ZINC000477589488    0.1000
     50 H50        -7.6508    0.4578   54.7395 H       1  ZINC000477589488    0.0600
     51 H51        -5.8644    2.9771   53.3713 H       1  ZINC000477589488    0.1500
     52 H52        -4.0529    2.5534   51.7029 H       1  ZINC000477589488    0.1500
     53 H53        -4.5142    0.9736   49.8429 H       1  ZINC000477589488    0.1700
     54 H54        -9.7102    1.2586   51.8597 H       1  ZINC000477589488    0.1000
     55 H55        -9.2375   -0.0126   53.0133 H       1  ZINC000477589488    0.0600
     56 H56       -11.4694    0.7721   53.6021 H       1  ZINC000477589488    0.0800
     57 H57       -10.9094    2.4652   53.6157 H       1  ZINC000477589488    0.0900
@<TRIPOS>BOND
     1     1     2    2
     2     2     3   am
     3     2    22   am
     4     3     4    1
     5     3    34    1
     6     4     5    1
     7     4     6    1
     8     4    12    1
     9     6    11   ar
    10     6     7   ar
    11     7     8   ar
    12     7    35    1
    13     8     9   ar
    14     8    36    1
    15     9    10   ar
    16     9    37    1
    17    10    11   ar
    18    10    38    1
    19    11    39    1
    20    12    21   ar
    21    12    13   ar
    22    13    18   ar
    23    13    14   ar
    24    14    15   ar
    25    14    40    1
    26    15    16   ar
    27    15    41    1
    28    16    17   ar
    29    16    42    1
    30    17    18   ar
    31    17    43    1
    32    18    19   ar
    33    19    20   ar
    34    19    44    1
    35    20    21   ar
    36    20    45    1
    37    21    46    1
    38    22    33    1
    39    22    23    1
    40    23    24    1
    41    23    47    1
    42    23    48    1
    43    24    25    1
    44    24    49    1
    45    24    50    1
    46    25    26    1
    47    25    32    1
    48    26    31   ar
    49    26    27   ar
    50    27    28   ar
    51    27    51    1
    52    28    29   ar
    53    28    52    1
    54    29    30   ar
    55    29    53    1
    56    30    31   ar
    57    32    33    1
    58    32    54    1
    59    32    55    1
    60    33    56    1
    61    33    57    1
@<TRIPOS>SUBSTRUCTURE
     1 ZINC000477589488        1 TEMP              0 ****  ****    0 ROOT


##########                                Name:    ZINC000426567005
##########                DOCK_Rotatable_Bonds:                   9
##########                         Heavy_Atoms:                  31
##########                    Molecular_Weight:             417.467
##########                DOCK_Rotatable_Bonds:                   9
##########                       Formal_Charge:        -2.23517e-07
##########                     HBond_Acceptors:                   8
##########                        HBond_Donors:                   4
##########                         Heavy_Atoms:                  31
##########                          Grid_Score:          -39.687126
##########                     Grid_vdw_energy:          -31.673714
##########                      Grid_es_energy:           -8.013411
##########           Internal_energy_repulsive:           18.176863

@<TRIPOS>MOLECULE
ZINC000426567005
 54 57 1 0 0
SMALL
USER_CHARGES


@<TRIPOS>ATOM
      1 O1          1.7606    1.7882   50.0316 O.2     1  ZINC000426567005   -0.4900
      2 C2          0.7991    1.7219   49.2936 C.2     1  ZINC000426567005    0.5200
      3 N3          0.9760    1.5217   47.9726 N.am    1  ZINC000426567005   -0.6000
      4 C4          2.2683    1.3962   47.4509 C.2     1  ZINC000426567005    0.3000
      5 N5          3.3866    1.6408   48.0934 N.2     1  ZINC000426567005   -0.3100
      6 N6          4.4543    1.3944   47.2209 N.pl3   1  ZINC000426567005   -0.4600
      7 C7          3.9436    0.9951   46.0369 C.2     1  ZINC000426567005    0.1100
      8 C8          4.7350    0.6242   44.8092 C.3     1  ZINC000426567005   -0.0300
      9 C9          4.9524   -0.9080   44.7468 C.3     1  ZINC000426567005   -0.1200
     10 C10         5.1957   -1.1575   43.2376 C.3     1  ZINC000426567005   -0.1300
     11 C11         4.2247   -0.1880   42.5325 C.3     1  ZINC000426567005   -0.1300
     12 C12         3.9318    0.9449   43.5318 C.3     1  ZINC000426567005   -0.1200
     13 C13         2.5963    0.9805   46.1498 C.2     1  ZINC000426567005   -0.2600
     14 C14        -0.5794    1.8558   49.8500 C.2     1  ZINC000426567005    0.5200
     15 O15        -0.7392    2.0248   51.0413 O.2     1  ZINC000426567005   -0.4900
     16 N16        -1.6467    1.7890   49.0297 N.am    1  ZINC000426567005   -0.6400
     17 C17        -2.9329    1.9139   49.5490 C.ar    1  ZINC000426567005    0.1700
     18 C18        -3.4369    3.1734   49.8602 C.ar    1  ZINC000426567005   -0.1300
     19 C19        -4.7078    3.3003   50.3735 C.ar    1  ZINC000426567005   -0.0300
     20 C20        -5.4926    2.1626   50.5816 C.ar    1  ZINC000426567005   -0.1500
     21 C21        -6.8558    2.2951   51.1313 C.2     1  ZINC000426567005    0.5600
     22 O22        -7.3281    1.4016   51.8074 O.2     1  ZINC000426567005   -0.5100
     23 N23        -7.5772    3.4063   50.8838 N.am    1  ZINC000426567005   -0.6700
     24 C24        -8.8690    3.5318   51.4047 C.ar    1  ZINC000426567005    0.1400
     25 C25        -9.0545    3.7147   52.7689 C.ar    1  ZINC000426567005   -0.1500
     26 C26       -10.3315    3.8389   53.2801 C.ar    1  ZINC000426567005   -0.1000
     27 C27       -11.4247    3.7811   52.4352 C.ar    1  ZINC000426567005   -0.1300
     28 C28       -11.2435    3.5986   51.0765 C.ar    1  ZINC000426567005   -0.1000
     29 C29        -9.9689    3.4796   50.5582 C.ar    1  ZINC000426567005   -0.1200
     30 C30        -4.9839    0.8993   50.2676 C.ar    1  ZINC000426567005   -0.0600
     31 C31        -3.7139    0.7796   49.7501 C.ar    1  ZINC000426567005   -0.1400
     32 H32         0.2075    1.4646   47.3834 H       1  ZINC000426567005    0.4300
     33 H33         5.3962    1.4935   47.4308 H       1  ZINC000426567005    0.4400
     34 H34         5.6910    1.1478   44.8002 H       1  ZINC000426567005    0.1100
     35 H35         5.8248   -1.1987   45.3320 H       1  ZINC000426567005    0.0800
     36 H36         4.0632   -1.4385   45.0874 H       1  ZINC000426567005    0.0700
     37 H37         6.2270   -0.9235   42.9737 H       1  ZINC000426567005    0.0700
     38 H38         4.9594   -2.1896   42.9786 H       1  ZINC000426567005    0.0700
     39 H39         4.6892    0.2177   41.6338 H       1  ZINC000426567005    0.0700
     40 H40         3.3012   -0.7063   42.2746 H       1  ZINC000426567005    0.0700
     41 H41         2.8662    0.9762   43.7588 H       1  ZINC000426567005    0.0600
     42 H42         4.2542    1.9004   43.1181 H       1  ZINC000426567005    0.0700
     43 H43         1.8962    0.7050   45.3751 H       1  ZINC000426567005    0.1700
     44 H44        -1.5190    1.6538   48.0777 H       1  ZINC000426567005    0.4300
     45 H45        -2.8300    4.0521   49.6991 H       1  ZINC000426567005    0.1500
     46 H46        -5.0980    4.2778   50.6155 H       1  ZINC000426567005    0.1400
     47 H47        -7.2004    4.1190   50.3443 H       1  ZINC000426567005    0.4100
     48 H48        -8.2011    3.7596   53.4294 H       1  ZINC000426567005    0.1300
     49 H49       -10.4764    3.9808   54.3409 H       1  ZINC000426567005    0.1300
     50 H50       -12.4223    3.8785   52.8375 H       1  ZINC000426567005    0.1200
     51 H51       -12.0993    3.5533   50.4194 H       1  ZINC000426567005    0.1300
     52 H52        -9.8279    3.3374   49.4969 H       1  ZINC000426567005    0.1300
     53 H53        -5.5876    0.0183   50.4276 H       1  ZINC000426567005    0.1300
     54 H54        -3.3201   -0.1964   49.5072 H       1  ZINC000426567005    0.1400
@<TRIPOS>BOND
     1     1     2    2
     2     2     3   am
     3     2    14    1
     4     3     4    1
     5     3    32    1
     6     4    13    1
     7     4     5    2
     8     5     6    1
     9     6     7    1
    10     6    33    1
    11     7     8    1
    12     7    13    2
    13     8    12    1
    14     8     9    1
    15     8    34    1
    16     9    10    1
    17     9    35    1
    18     9    36    1
    19    10    11    1
    20    10    37    1
    21    10    38    1
    22    11    12    1
    23    11    39    1
    24    11    40    1
    25    12    41    1
    26    12    42    1
    27    13    43    1
    28    14    15    2
    29    14    16   am
    30    16    17    1
    31    16    44    1
    32    17    31   ar
    33    17    18   ar
    34    18    19   ar
    35    18    45    1
    36    19    20   ar
    37    19    46    1
    38    20    21    1
    39    20    30   ar
    40    21    22    2
    41    21    23   am
    42    23    24    1
    43    23    47    1
    44    24    29   ar
    45    24    25   ar
    46    25    26   ar
    47    25    48    1
    48    26    27   ar
    49    26    49    1
    50    27    28   ar
    51    27    50    1
    52    28    29   ar
    53    28    51    1
    54    29    52    1
    55    30    31   ar
    56    30    53    1
    57    31    54    1
@<TRIPOS>SUBSTRUCTURE
     1 ZINC000426567005        1 TEMP              0 ****  ****    0 ROOT


##########                                Name:    ZINC000487792031
##########                DOCK_Rotatable_Bonds:                  12
##########                         Heavy_Atoms:                  29
##########                    Molecular_Weight:             414.569
##########                DOCK_Rotatable_Bonds:                  12
##########                       Formal_Charge:          -0.0100001
##########                     HBond_Acceptors:                   6
##########                        HBond_Donors:                   1
##########                         Heavy_Atoms:                  29
##########                          Grid_Score:          -39.658112
##########                     Grid_vdw_energy:          -38.308697
##########                      Grid_es_energy:           -1.349414
##########           Internal_energy_repulsive:           18.908388

@<TRIPOS>MOLECULE
ZINC000487792031
 59 60 1 0 0
SMALL
USER_CHARGES


@<TRIPOS>ATOM
      1 C1        -15.7596    0.3764   55.5531 C.2     1  ZINC000487792031   -0.1900
      2 C2        -15.0634    0.1844   54.4601 C.2     1  ZINC000487792031   -0.1500
      3 C3        -14.4480   -1.1636   54.1858 C.3     1  ZINC000487792031   -0.0900
      4 C4        -14.3652   -1.3884   52.6747 C.3     1  ZINC000487792031   -0.0900
      5 C5        -13.2713   -0.4955   52.0855 C.3     1  ZINC000487792031   -0.0700
      6 H6        -13.3135    0.4879   52.5540 H       1  ZINC000487792031    0.1100
      7 C7        -11.9228   -1.1170   52.3428 C.2     1  ZINC000487792031    0.5200
      8 O8        -11.8081   -2.3239   52.3779 O.2     1  ZINC000487792031   -0.5300
      9 N9        -10.8442   -0.3318   52.5341 N.am    1  ZINC000487792031   -0.7200
     10 C10        -9.5337   -0.9360   52.7859 C.3     1  ZINC000487792031    0.1500
     11 C11        -8.4548   -0.0510   52.2169 C.ar    1  ZINC000487792031   -0.0500
     12 C12        -8.4492    1.3019   52.5010 C.ar    1  ZINC000487792031   -0.1200
     13 C13        -7.4596    2.1137   51.9790 C.ar    1  ZINC000487792031   -0.0200
     14 C14        -6.4751    1.5726   51.1734 C.ar    1  ZINC000487792031   -0.6700
     15 S15        -5.2140    2.6074   50.5077 S.o2    1  ZINC000487792031    2.6900
     16 O16        -4.9282    2.1068   49.2088 O.2     1  ZINC000487792031   -0.9500
     17 O17        -5.6231    3.9462   50.7518 O.2     1  ZINC000487792031   -0.9500
     18 N18        -3.8498    2.3626   51.4139 N.am    1  ZINC000487792031   -1.0000
     19 C19        -3.8652    2.6437   52.8515 C.3     1  ZINC000487792031    0.1200
     20 C20        -3.4269    4.0896   53.0931 C.3     1  ZINC000487792031   -0.1800
     21 C21        -2.6276    1.8648   50.7778 C.3     1  ZINC000487792031    0.1100
     22 C22        -2.0276    2.9625   49.8969 C.3     1  ZINC000487792031   -0.1800
     23 C23        -6.4799    0.2195   50.8903 C.ar    1  ZINC000487792031   -0.0200
     24 C24        -7.4674   -0.5930   51.4155 C.ar    1  ZINC000487792031   -0.1200
     25 C25       -13.4840   -0.3540   50.6004 C.ar    1  ZINC000487792031   -0.0800
     26 C26       -13.3849    0.8888   50.0032 C.ar    1  ZINC000487792031   -0.1100
     27 C27       -13.5800    1.0185   48.6408 C.ar    1  ZINC000487792031   -0.1100
     28 C28       -13.8738   -0.0947   47.8756 C.ar    1  ZINC000487792031   -0.1200
     29 C29       -13.9719   -1.3375   48.4726 C.ar    1  ZINC000487792031   -0.1200
     30 C30       -13.7726   -1.4679   49.8343 C.ar    1  ZINC000487792031   -0.1100
     31 H31       -16.2007    1.3424   55.7497 H       1  ZINC000487792031    0.1000
     32 H32       -15.8962   -0.4326   56.2554 H       1  ZINC000487792031    0.1000
     33 H33       -14.9305    0.9922   53.7557 H       1  ZINC000487792031    0.1100
     34 H34       -13.4463   -1.1996   54.6140 H       1  ZINC000487792031    0.0700
     35 H35       -15.0636   -1.9425   54.6358 H       1  ZINC000487792031    0.0700
     36 H36       -14.1279   -2.4334   52.4752 H       1  ZINC000487792031    0.0800
     37 H37       -15.3228   -1.1395   52.2174 H       1  ZINC000487792031    0.0700
     38 H38       -10.9358    0.6334   52.5049 H       1  ZINC000487792031    0.4000
     39 H39        -9.3846   -1.0457   53.8602 H       1  ZINC000487792031    0.0800
     40 H40        -9.4879   -1.9159   52.3109 H       1  ZINC000487792031    0.0800
     41 H41        -9.2183    1.7246   53.1305 H       1  ZINC000487792031    0.1400
     42 H42        -7.4556    3.1707   52.2005 H       1  ZINC000487792031    0.1400
     43 H43        -4.8738    2.5003   53.2391 H       1  ZINC000487792031    0.0800
     44 H44        -3.1802    1.9665   53.3616 H       1  ZINC000487792031    0.0800
     45 H45        -2.4183    4.2331   52.7056 H       1  ZINC000487792031    0.0600
     46 H46        -4.1119    4.7669   52.5831 H       1  ZINC000487792031    0.0600
     47 H47        -3.4383    4.2988   54.1627 H       1  ZINC000487792031    0.0700
     48 H48        -1.9078    1.5813   51.5458 H       1  ZINC000487792031    0.0900
     49 H49        -2.8652    0.9959   50.1642 H       1  ZINC000487792031    0.0900
     50 H50        -2.7474    3.2460   49.1289 H       1  ZINC000487792031    0.0600
     51 H51        -1.7899    3.8314   50.5105 H       1  ZINC000487792031    0.0600
     52 H52        -1.1183    2.5921   49.4237 H       1  ZINC000487792031    0.0700
     53 H53        -5.7107   -0.2033   50.2612 H       1  ZINC000487792031    0.1400
     54 H54        -7.4711   -1.6501   51.1943 H       1  ZINC000487792031    0.1400
     55 H55       -13.1555    1.7583   50.6011 H       1  ZINC000487792031    0.1200
     56 H56       -13.5033    1.9895   48.1744 H       1  ZINC000487792031    0.1200
     57 H57       -14.0268    0.0068   46.8113 H       1  ZINC000487792031    0.1200
     58 H58       -14.2018   -2.2071   47.8748 H       1  ZINC000487792031    0.1200
     59 H59       -13.8493   -2.4390   50.3008 H       1  ZINC000487792031    0.1200
@<TRIPOS>BOND
     1     1     2    2
     2     1    31    1
     3     1    32    1
     4     2     3    1
     5     2    33    1
     6     3     4    1
     7     3    34    1
     8     3    35    1
     9     4     5    1
    10     4    36    1
    11     4    37    1
    12     5     6    1
    13     5     7    1
    14     5    25    1
    15     7     8    2
    16     7     9   am
    17     9    10    1
    18     9    38    1
    19    10    11    1
    20    10    39    1
    21    10    40    1
    22    11    24   ar
    23    11    12   ar
    24    12    13   ar
    25    12    41    1
    26    13    14   ar
    27    13    42    1
    28    14    15    1
    29    14    23   ar
    30    15    16    2
    31    15    17    2
    32    15    18   am
    33    18    19    1
    34    18    21    1
    35    19    20    1
    36    19    43    1
    37    19    44    1
    38    20    45    1
    39    20    46    1
    40    20    47    1
    41    21    22    1
    42    21    48    1
    43    21    49    1
    44    22    50    1
    45    22    51    1
    46    22    52    1
    47    23    24   ar
    48    23    53    1
    49    24    54    1
    50    25    30   ar
    51    25    26   ar
    52    26    27   ar
    53    26    55    1
    54    27    28   ar
    55    27    56    1
    56    28    29   ar
    57    28    57    1
    58    29    30   ar
    59    29    58    1
    60    30    59    1
@<TRIPOS>SUBSTRUCTURE
     1 ZINC000487792031        1 TEMP              0 ****  ****    0 ROOT


##########                                Name:    ZINC000195331548
##########                DOCK_Rotatable_Bonds:                   7
##########                         Heavy_Atoms:                  26
##########                    Molecular_Weight:             378.539
##########                DOCK_Rotatable_Bonds:                   7
##########                       Formal_Charge:          -0.0100004
##########                     HBond_Acceptors:                   7
##########                        HBond_Donors:                   2
##########                         Heavy_Atoms:                  26
##########                          Grid_Score:          -39.626251
##########                     Grid_vdw_energy:          -33.347546
##########                      Grid_es_energy:           -6.278707
##########           Internal_energy_repulsive:           24.732370

@<TRIPOS>MOLECULE
ZINC000195331548
 56 58 1 0 0
SMALL
USER_CHARGES


@<TRIPOS>ATOM
      1 C1         -2.9253    2.7414   49.5610 C.3     1  ZINC000195331548   -0.0800
      2 C2         -4.0975    1.8828   49.9606 C.2     1  ZINC000195331548    0.0700
      3 C3         -4.1027    0.5541   49.8171 C.2     1  ZINC000195331548   -0.2600
      4 S4         -5.6485   -0.0493   50.4097 S.3     1  ZINC000195331548    0.1100
      5 C5         -6.1373    1.5458   50.7837 C.2     1  ZINC000195331548    0.0600
      6 C6         -7.4666    1.9217   51.3863 C.3     1  ZINC000195331548   -0.0100
      7 H7         -8.2028    1.1523   51.1535 H       1  ZINC000195331548    0.1100
      8 C8         -7.9285    3.2627   50.8092 C.3     1  ZINC000195331548   -0.1200
      9 C9         -9.2493    3.6661   51.4706 C.3     1  ZINC000195331548   -0.1100
     10 C10        -9.0530    3.7417   52.9864 C.3     1  ZINC000195331548    0.0500
     11 N11        -8.6119    2.4346   53.4899 N.3     1  ZINC000195331548   -0.5200
     12 C12        -8.5464    2.4307   54.9575 C.3     1  ZINC000195331548    0.0400
     13 C13        -9.6450    1.5578   55.5069 C.2     1  ZINC000195331548    0.5100
     14 O14       -10.7196    1.5116   54.9476 O.2     1  ZINC000195331548   -0.4400
     15 N15        -9.4329    0.8283   56.6203 N.am    1  ZINC000195331548   -0.7000
     16 C16       -10.4159    0.0488   57.1126 C.2     1  ZINC000195331548    0.6900
     17 O17       -11.4942    0.0047   56.5536 O.2     1  ZINC000195331548   -0.5300
     18 N18       -10.2033   -0.6820   58.2249 N.am    1  ZINC000195331548   -0.7300
     19 C19       -11.2713   -1.5306   58.7591 C.3     1  ZINC000195331548    0.1700
     20 H20       -11.7020   -2.1237   57.9523 H       1  ZINC000195331548    0.0900
     21 C21       -12.3577   -0.6517   59.3821 C.3     1  ZINC000195331548   -0.1300
     22 C22       -11.7531    0.1807   60.5145 C.3     1  ZINC000195331548   -0.1200
     23 C23       -11.1775   -0.7521   61.5820 C.3     1  ZINC000195331548   -0.1200
     24 C24       -10.0911   -1.6311   60.9591 C.3     1  ZINC000195331548   -0.1100
     25 C25       -10.6957   -2.4635   59.8265 C.3     1  ZINC000195331548   -0.1000
     26 H26       -11.4903   -3.0949   60.2240 H       1  ZINC000195331548    0.0900
     27 C27        -9.6093   -3.3424   59.2035 C.3     1  ZINC000195331548   -0.1500
     28 C28        -7.3219    2.0479   52.9046 C.3     1  ZINC000195331548    0.0600
     29 N29        -5.2014    2.3806   50.4805 N.2     1  ZINC000195331548   -0.4700
     30 H30        -2.2455    2.8447   50.4068 H       1  ZINC000195331548    0.0800
     31 H31        -2.4001    2.2743   48.7278 H       1  ZINC000195331548    0.0800
     32 H32        -3.2823    3.7261   49.2593 H       1  ZINC000195331548    0.0800
     33 H33        -3.2998   -0.0445   49.4129 H       1  ZINC000195331548    0.1800
     34 H34        -7.1742    4.0240   51.0079 H       1  ZINC000195331548    0.0600
     35 H35        -8.0735    3.1656   49.7333 H       1  ZINC000195331548    0.0700
     36 H36        -9.5616    4.6404   51.0950 H       1  ZINC000195331548    0.0800
     37 H37       -10.0137    2.9242   51.2391 H       1  ZINC000195331548    0.0800
     38 H38        -9.9952    4.0148   53.4615 H       1  ZINC000195331548    0.0800
     39 H39        -8.2985    4.4935   53.2178 H       1  ZINC000195331548    0.0400
     40 H40        -8.6702    3.4478   55.3294 H       1  ZINC000195331548    0.1200
     41 H41        -7.5794    2.0421   55.2770 H       1  ZINC000195331548    0.0700
     42 H42        -8.5727    0.8643   57.0671 H       1  ZINC000195331548    0.4100
     43 H43        -9.3431   -0.6460   58.6718 H       1  ZINC000195331548    0.4000
     44 H44       -13.1523   -1.2832   59.7795 H       1  ZINC000195331548    0.0700
     45 H45       -12.7678    0.0129   58.6216 H       1  ZINC000195331548    0.0700
     46 H46       -12.5272    0.8069   60.9584 H       1  ZINC000195331548    0.0600
     47 H47       -10.9586    0.8121   60.1171 H       1  ZINC000195331548    0.0600
     48 H48       -10.7468   -0.1591   62.3887 H       1  ZINC000195331548    0.0600
     49 H49       -11.9722   -1.3836   61.9794 H       1  ZINC000195331548    0.0600
     50 H50        -9.2965   -0.9996   60.5615 H       1  ZINC000195331548    0.0600
     51 H51        -9.6811   -2.2957   61.7194 H       1  ZINC000195331548    0.0700
     52 H52        -8.8147   -2.7110   58.8061 H       1  ZINC000195331548    0.0500
     53 H53        -9.1992   -4.0070   59.9640 H       1  ZINC000195331548    0.0600
     54 H54       -10.0400   -3.9354   58.3967 H       1  ZINC000195331548    0.0600
     55 H55        -6.5755    2.8077   53.1364 H       1  ZINC000195331548    0.0400
     56 H56        -7.0069    1.0907   53.3202 H       1  ZINC000195331548    0.0900
@<TRIPOS>BOND
     1     1     2    1
     2     1    30    1
     3     1    31    1
     4     1    32    1
     5     2    29    1
     6     2     3    2
     7     3     4    1
     8     3    33    1
     9     4     5    1
    10     5     6    1
    11     5    29    2
    12     6     7    1
    13     6    28    1
    14     6     8    1
    15     8     9    1
    16     8    34    1
    17     8    35    1
    18     9    10    1
    19     9    36    1
    20     9    37    1
    21    10    11    1
    22    10    38    1
    23    10    39    1
    24    11    12    1
    25    11    28    1
    26    12    13    1
    27    12    40    1
    28    12    41    1
    29    13    14    2
    30    13    15   am
    31    15    16   am
    32    15    42    1
    33    16    17    2
    34    16    18   am
    35    18    19    1
    36    18    43    1
    37    19    20    1
    38    19    25    1
    39    19    21    1
    40    21    22    1
    41    21    44    1
    42    21    45    1
    43    22    23    1
    44    22    46    1
    45    22    47    1
    46    23    24    1
    47    23    48    1
    48    23    49    1
    49    24    25    1
    50    24    50    1
    51    24    51    1
    52    25    26    1
    53    25    27    1
    54    27    52    1
    55    27    53    1
    56    27    54    1
    57    28    55    1
    58    28    56    1
@<TRIPOS>SUBSTRUCTURE
     1 ZINC000195331548        1 TEMP              0 ****  ****    0 ROOT


##########                                Name:    ZINC000058174787
##########                DOCK_Rotatable_Bonds:                   9
##########                         Heavy_Atoms:                  27
##########                    Molecular_Weight:             413.882
##########                DOCK_Rotatable_Bonds:                   9
##########                       Formal_Charge:           0.0200002
##########                     HBond_Acceptors:                  10
##########                        HBond_Donors:                   1
##########                         Heavy_Atoms:                  27
##########                          Grid_Score:          -39.622620
##########                     Grid_vdw_energy:          -38.789131
##########                      Grid_es_energy:           -0.833489
##########           Internal_energy_repulsive:            7.254435

@<TRIPOS>MOLECULE
ZINC000058174787
 47 48 1 0 0
SMALL
USER_CHARGES


@<TRIPOS>ATOM
      1 C1        -14.4207    3.6755   51.2328 C.3     1  ZINC000058174787   -0.0700
      2 C2        -14.0850    2.3510   50.5971 C.2     1  ZINC000058174787    0.2100
      3 N3        -14.1757    1.1848   51.1757 N.2     1  ZINC000058174787   -0.4200
      4 C4        -13.7966    0.2316   50.3116 C.2     1  ZINC000058174787   -0.5600
      5 S5        -13.7496   -1.4998   50.6349 S.o2    1  ZINC000058174787    2.7400
      6 O6        -14.6650   -1.7348   51.6962 O.2     1  ZINC000058174787   -0.9500
      7 O7        -13.8403   -2.1463   49.3729 O.2     1  ZINC000058174787   -0.9600
      8 N8        -12.2439   -1.8465   51.2309 N.am    1  ZINC000058174787   -1.1100
      9 C9        -11.7795   -1.2075   52.4646 C.3     1  ZINC000058174787    0.1300
     10 C10       -10.8109   -2.1435   53.1904 C.3     1  ZINC000058174787   -0.1200
     11 C11       -11.5486   -3.3772   53.6428 C.2     1  ZINC000058174787    0.4700
     12 O12       -11.7448   -4.2824   52.8669 O.2     1  ZINC000058174787   -0.5000
     13 O13       -11.9878   -3.4705   54.9078 O.3     1  ZINC000058174787   -0.3300
     14 C14       -13.1175   -4.3499   55.1502 C.3     1  ZINC000058174787    0.0400
     15 H15       -13.0480   -5.2193   54.4965 H       1  ZINC000058174787    0.1200
     16 C16       -14.4192   -3.5989   54.8635 C.3     1  ZINC000058174787   -0.1700
     17 C17       -13.1038   -4.8005   56.5883 C.2     1  ZINC000058174787    0.4000
     18 O18       -13.8922   -5.6400   56.9682 O.2     1  ZINC000058174787   -0.4200
     19 C19       -12.1341   -4.2222   57.5310 C.ar    1  ZINC000058174787   -0.1600
     20 C20       -10.9426   -4.8977   57.8163 C.ar    1  ZINC000058174787   -0.0600
     21 C21       -10.0385   -4.3497   58.7003 C.ar    1  ZINC000058174787   -0.1200
     22 C22       -10.3071   -3.1326   59.3059 C.ar    1  ZINC000058174787    0.0000
     23 Cl23       -9.1620   -2.4495   60.4175 Cl      1  ZINC000058174787   -0.0500
     24 C24       -11.4851   -2.4579   59.0280 C.ar    1  ZINC000058174787   -0.1200
     25 C25       -12.3961   -2.9913   58.1421 C.ar    1  ZINC000058174787   -0.0400
     26 C26       -13.4580    0.8299   49.1535 C.2     1  ZINC000058174787    0.0700
     27 N27       -13.6459    2.1738   49.3323 N.pl3   1  ZINC000058174787   -0.4500
     28 C28       -13.4071    3.2246   48.3398 C.3     1  ZINC000058174787    0.0600
     29 H29       -15.4726    3.9044   51.0617 H       1  ZINC000058174787    0.0900
     30 H30       -14.2301    3.6227   52.3047 H       1  ZINC000058174787    0.1000
     31 H31       -13.8024    4.4573   50.7919 H       1  ZINC000058174787    0.0800
     32 H32       -11.6695   -2.4727   50.7631 H       1  ZINC000058174787    0.4200
     33 H33       -11.2699   -0.2751   52.2214 H       1  ZINC000058174787    0.0900
     34 H34       -12.6333   -0.9977   53.1089 H       1  ZINC000058174787    0.0900
     35 H35       -10.0058   -2.4293   52.5135 H       1  ZINC000058174787    0.1200
     36 H36       -10.3924   -1.6322   54.0573 H       1  ZINC000058174787    0.1200
     37 H37       -14.4887   -2.7295   55.5173 H       1  ZINC000058174787    0.0800
     38 H38       -14.4291   -3.2730   53.8234 H       1  ZINC000058174787    0.0800
     39 H39       -15.2673   -4.2590   55.0454 H       1  ZINC000058174787    0.0800
     40 H40       -10.7322   -5.8466   57.3454 H       1  ZINC000058174787    0.1400
     41 H41        -9.1184   -4.8702   58.9218 H       1  ZINC000058174787    0.1400
     42 H42       -11.6879   -1.5097   59.5036 H       1  ZINC000058174787    0.1400
     43 H43       -13.3136   -2.4643   57.9262 H       1  ZINC000058174787    0.1500
     44 H44       -13.1094    0.3424   48.2550 H       1  ZINC000058174787    0.1900
     45 H45       -14.3166    3.3934   47.7634 H       1  ZINC000058174787    0.0900
     46 H46       -13.1225    4.1461   48.8477 H       1  ZINC000058174787    0.1000
     47 H47       -12.6044    2.9162   47.6701 H       1  ZINC000058174787    0.0900
@<TRIPOS>BOND
     1     1     2    1
     2     1    29    1
     3     1    30    1
     4     1    31    1
     5     2    27    1
     6     2     3    2
     7     3     4    1
     8     4     5    1
     9     4    26    2
    10     5     6    2
    11     5     7    2
    12     5     8   am
    13     8     9    1
    14     8    32    1
    15     9    10    1
    16     9    33    1
    17     9    34    1
    18    10    11    1
    19    10    35    1
    20    10    36    1
    21    11    12    2
    22    11    13    1
    23    13    14    1
    24    14    15    1
    25    14    16    1
    26    14    17    1
    27    16    37    1
    28    16    38    1
    29    16    39    1
    30    17    18    2
    31    17    19    1
    32    19    25   ar
    33    19    20   ar
    34    20    21   ar
    35    20    40    1
    36    21    22   ar
    37    21    41    1
    38    22    23    1
    39    22    24   ar
    40    24    25   ar
    41    24    42    1
    42    25    43    1
    43    26    27    1
    44    26    44    1
    45    27    28    1
    46    28    45    1
    47    28    46    1
    48    28    47    1
@<TRIPOS>SUBSTRUCTURE
     1 ZINC000058174787        1 TEMP              0 ****  ****    0 ROOT


##########                                Name:    ZINC000179496896
##########                DOCK_Rotatable_Bonds:                   8
##########                         Heavy_Atoms:                  27
##########                    Molecular_Weight:             396.504
##########                DOCK_Rotatable_Bonds:                   8
##########                       Formal_Charge:          0.00999944
##########                     HBond_Acceptors:                   8
##########                        HBond_Donors:                   1
##########                         Heavy_Atoms:                  27
##########                          Grid_Score:          -39.591446
##########                     Grid_vdw_energy:          -38.701107
##########                      Grid_es_energy:           -0.890338
##########           Internal_energy_repulsive:           26.491941

@<TRIPOS>MOLECULE
ZINC000179496896
 53 55 1 0 0
SMALL
USER_CHARGES


@<TRIPOS>ATOM
      1 C1         -4.6854    2.5452   49.7513 C.3     1  ZINC000179496896   -0.1500
      2 C2         -4.3074    2.0214   51.1382 C.3     1  ZINC000179496896   -0.1100
      3 C3         -3.1652    2.8650   51.7080 C.3     1  ZINC000179496896   -0.1400
      4 C4         -5.5205    2.1123   52.0659 C.3     1  ZINC000179496896    0.1200
      5 N5         -6.3801    0.9437   51.8617 N.pl3   1  ZINC000179496896   -0.3300
      6 N6         -6.1428   -0.0982   50.9581 N.2     1  ZINC000179496896   -0.2700
      7 C7         -7.1141   -0.9642   51.0472 C.2     1  ZINC000179496896    0.0800
      8 C8         -8.0230   -0.5026   52.0254 C.2     1  ZINC000179496896   -0.2500
      9 C9         -9.2663   -1.1716   52.4499 C.2     1  ZINC000179496896    0.5900
     10 O10        -9.3742   -2.3782   52.3442 O.2     1  ZINC000179496896   -0.5300
     11 N11       -10.2835   -0.4458   52.9550 N.am    1  ZINC000179496896   -0.7100
     12 C12       -11.5197   -1.1104   53.3751 C.3     1  ZINC000179496896    0.1300
     13 C13       -11.9169   -0.6155   54.7673 C.3     1  ZINC000179496896    0.0700
     14 H14       -11.6226    0.4280   54.8796 H       1  ZINC000179496896    0.0900
     15 C15       -13.4322   -0.7393   54.9394 C.3     1  ZINC000179496896   -0.1900
     16 N16       -11.2403   -1.4276   55.7873 N.3     1  ZINC000179496896   -0.5300
     17 C17       -11.9424   -2.7018   55.9972 C.3     1  ZINC000179496896    0.0600
     18 C18       -11.0150   -3.6686   56.7435 C.3     1  ZINC000179496896   -0.0400
     19 C19       -10.4339   -2.9365   57.9348 C.2     1  ZINC000179496896   -0.1700
     20 C20       -10.4657   -1.5973   58.0845 C.2     1  ZINC000179496896   -0.1100
     21 C21        -9.8714   -1.1533   59.2602 C.2     1  ZINC000179496896   -0.1200
     22 C22        -9.3688   -2.1021   60.0454 C.2     1  ZINC000179496896   -0.2200
     23 S23        -9.6311   -3.6770   59.3097 S.3     1  ZINC000179496896    0.1000
     24 C24       -11.0994   -0.6823   57.0454 C.3     1  ZINC000179496896    0.1200
     25 C25        -7.5255    0.6887   52.5142 C.2     1  ZINC000179496896    0.0700
     26 C26        -8.1572    1.5499   53.5773 C.3     1  ZINC000179496896    0.3400
     27 F27        -7.8603    1.0254   54.8398 F       1  ZINC000179496896   -0.1500
     28 F28        -7.6536    2.8518   53.4830 F       1  ZINC000179496896   -0.2000
     29 H29        -3.8211    2.4805   49.0904 H       1  ZINC000179496896    0.0600
     30 H30        -5.4991    1.9442   49.3453 H       1  ZINC000179496896    0.0600
     31 H31        -5.0054    3.5842   49.8301 H       1  ZINC000179496896    0.0600
     32 H32        -3.9873    0.9824   51.0593 H       1  ZINC000179496896    0.0800
     33 H33        -3.4853    3.9039   51.7869 H       1  ZINC000179496896    0.0600
     34 H34        -2.8958    2.4918   52.6961 H       1  ZINC000179496896    0.0600
     35 H35        -2.3008    2.8002   51.0472 H       1  ZINC000179496896    0.0700
     36 H36        -5.1842    2.1393   53.1024 H       1  ZINC000179496896    0.1000
     37 H37        -6.0817    3.0196   51.8423 H       1  ZINC000179496896    0.1000
     38 H38        -7.2074   -1.8745   50.4734 H       1  ZINC000179496896    0.2000
     39 H39       -10.1971    0.5166   53.0404 H       1  ZINC000179496896    0.4100
     40 H40       -12.3152   -0.8794   52.6667 H       1  ZINC000179496896    0.0700
     41 H41       -11.3608   -2.1883   53.4043 H       1  ZINC000179496896    0.0700
     42 H42       -13.7152   -0.3867   55.9312 H       1  ZINC000179496896    0.0600
     43 H43       -13.9343   -0.1366   54.1825 H       1  ZINC000179496896    0.0700
     44 H44       -13.7266   -1.7827   54.8271 H       1  ZINC000179496896    0.0600
     45 H45       -12.8414   -2.5293   56.5889 H       1  ZINC000179496896    0.0400
     46 H46       -12.2160   -3.1303   55.0331 H       1  ZINC000179496896    0.0900
     47 H47       -11.5828   -4.5342   57.0844 H       1  ZINC000179496896    0.0800
     48 H48       -10.2111   -3.9918   56.0821 H       1  ZINC000179496896    0.0900
     49 H49        -9.8207   -0.1061   59.5190 H       1  ZINC000179496896    0.1400
     50 H50        -8.8752   -1.9310   60.9907 H       1  ZINC000179496896    0.1600
     51 H51       -10.4617    0.1872   56.8861 H       1  ZINC000179496896    0.0900
     52 H52       -12.0815   -0.3605   57.3918 H       1  ZINC000179496896    0.0500
     53 H53        -9.2379    1.5675   53.4361 H       1  ZINC000179496896    0.1300
@<TRIPOS>BOND
     1     1     2    1
     2     1    29    1
     3     1    30    1
     4     1    31    1
     5     2     3    1
     6     2     4    1
     7     2    32    1
     8     3    33    1
     9     3    34    1
    10     3    35    1
    11     4     5    1
    12     4    36    1
    13     4    37    1
    14     5    25    1
    15     5     6    1
    16     6     7    2
    17     7     8    1
    18     7    38    1
    19     8     9    1
    20     8    25    2
    21     9    10    2
    22     9    11   am
    23    11    12    1
    24    11    39    1
    25    12    13    1
    26    12    40    1
    27    12    41    1
    28    13    14    1
    29    13    15    1
    30    13    16    1
    31    15    42    1
    32    15    43    1
    33    15    44    1
    34    16    24    1
    35    16    17    1
    36    17    18    1
    37    17    45    1
    38    17    46    1
    39    18    19    1
    40    18    47    1
    41    18    48    1
    42    19    23    1
    43    19    20    2
    44    20    21    1
    45    20    24    1
    46    21    22    2
    47    21    49    1
    48    22    23    1
    49    22    50    1
    50    24    51    1
    51    24    52    1
    52    25    26    1
    53    26    27    1
    54    26    28    1
    55    26    53    1
@<TRIPOS>SUBSTRUCTURE
     1 ZINC000179496896        1 TEMP              0 ****  ****    0 ROOT


##########                                Name:    ZINC000004598904
##########                DOCK_Rotatable_Bonds:                  13
##########                         Heavy_Atoms:                  30
##########                    Molecular_Weight:             412.442
##########                DOCK_Rotatable_Bonds:                  13
##########                       Formal_Charge:          -0.0300005
##########                     HBond_Acceptors:                   8
##########                        HBond_Donors:                   2
##########                         Heavy_Atoms:                  30
##########                          Grid_Score:          -39.569366
##########                     Grid_vdw_energy:          -35.271523
##########                      Grid_es_energy:           -4.297844
##########           Internal_energy_repulsive:            7.943754

@<TRIPOS>MOLECULE
ZINC000004598904
 54 55 1 0 0
SMALL
USER_CHARGES


@<TRIPOS>ATOM
      1 C1          2.2368    2.6104   45.7920 C.3     1  ZINC000004598904   -0.1500
      2 C2          1.9687    3.7788   46.7428 C.3     1  ZINC000004598904    0.0600
      3 O3          2.6371    3.5359   48.0086 O.3     1  ZINC000004598904   -0.3500
      4 C4          2.1863    2.5053   48.7505 C.2     1  ZINC000004598904    0.5100
      5 O5          2.9266    1.5797   49.0180 O.2     1  ZINC000004598904   -0.5100
      6 C6          0.7944    2.5007   49.2377 C.ar    1  ZINC000004598904   -0.1500
      7 C7         -0.0564    1.4384   48.9178 C.ar    1  ZINC000004598904   -0.0400
      8 C8         -1.3550    1.4376   49.3742 C.ar    1  ZINC000004598904   -0.1400
      9 C9         -1.8213    2.4923   50.1530 C.ar    1  ZINC000004598904    0.1800
     10 N10        -3.1371    2.4878   50.6138 N.am    1  ZINC000004598904   -0.6700
     11 C11        -4.1571    2.6064   49.7409 C.2     1  ZINC000004598904    0.5200
     12 O12        -3.9305    2.7168   48.5547 O.2     1  ZINC000004598904   -0.5100
     13 C13        -5.5794    2.6015   50.2391 C.3     1  ZINC000004598904   -0.1300
     14 C14        -5.9490    1.1945   50.7130 C.3     1  ZINC000004598904   -0.1300
     15 C15        -7.1660    1.2662   51.5989 C.2     1  ZINC000004598904    0.5200
     16 O16        -8.0823    2.0069   51.3116 O.2     1  ZINC000004598904   -0.5100
     17 N17        -7.2361    0.5073   52.7105 N.am    1  ZINC000004598904   -0.6700
     18 C18        -8.3619    0.5737   53.5300 C.ar    1  ZINC000004598904    0.1800
     19 C19        -8.3087    1.2820   54.7265 C.ar    1  ZINC000004598904   -0.1400
     20 C20        -9.4184    1.3498   55.5381 C.ar    1  ZINC000004598904   -0.0300
     21 C21       -10.6000    0.7061   55.1588 C.ar    1  ZINC000004598904   -0.1500
     22 C22       -11.7911    0.7767   56.0254 C.2     1  ZINC000004598904    0.5100
     23 O23       -12.8996    0.8314   55.5311 O.2     1  ZINC000004598904   -0.5100
     24 O24       -11.6500    0.7807   57.3655 O.3     1  ZINC000004598904   -0.3600
     25 C25       -11.6545   -0.5089   58.0326 C.3     1  ZINC000004598904    0.0600
     26 C26       -10.2680   -0.7856   58.6173 C.3     1  ZINC000004598904   -0.1500
     27 C27       -10.6501   -0.0043   53.9557 C.ar    1  ZINC000004598904   -0.0400
     28 C28        -9.5380   -0.0638   53.1467 C.ar    1  ZINC000004598904   -0.1600
     29 C29        -0.9774    3.5512   50.4732 C.ar    1  ZINC000004598904   -0.1600
     30 C30         0.3242    3.5560   50.0251 C.ar    1  ZINC000004598904   -0.0300
     31 H31         1.8565    1.6888   46.2327 H       1  ZINC000004598904    0.0700
     32 H32         1.7349    2.7927   44.8417 H       1  ZINC000004598904    0.0800
     33 H33         3.3097    2.5172   45.6244 H       1  ZINC000004598904    0.0700
     34 H34         2.3490    4.7004   46.3021 H       1  ZINC000004598904    0.0700
     35 H35         0.8957    3.8720   46.9104 H       1  ZINC000004598904    0.0700
     36 H36         0.3048    0.6197   48.3131 H       1  ZINC000004598904    0.1400
     37 H37        -2.0129    0.6175   49.1272 H       1  ZINC000004598904    0.1400
     38 H38        -3.3183    2.3995   51.5626 H       1  ZINC000004598904    0.4200
     39 H39        -5.6761    3.3015   51.0690 H       1  ZINC000004598904    0.1100
     40 H40        -6.2482    2.9003   49.4319 H       1  ZINC000004598904    0.1100
     41 H41        -6.1648    0.5653   49.8495 H       1  ZINC000004598904    0.1100
     42 H42        -5.1163    0.7693   51.2733 H       1  ZINC000004598904    0.1100
     43 H43        -6.5032   -0.0852   52.9402 H       1  ZINC000004598904    0.4200
     44 H44        -7.3955    1.7791   55.0189 H       1  ZINC000004598904    0.1400
     45 H45        -9.3761    1.8991   56.4670 H       1  ZINC000004598904    0.1400
     46 H46       -12.3921   -0.5003   58.8351 H       1  ZINC000004598904    0.0700
     47 H47       -11.9081   -1.2886   57.3144 H       1  ZINC000004598904    0.0700
     48 H48       -10.2715   -1.7537   59.1182 H       1  ZINC000004598904    0.0800
     49 H49        -9.5304   -0.7943   57.8149 H       1  ZINC000004598904    0.0700
     50 H50       -10.0144   -0.0059   59.3356 H       1  ZINC000004598904    0.0700
     51 H51       -11.5611   -0.5030   53.6597 H       1  ZINC000004598904    0.1400
     52 H52        -9.5759   -0.6120   52.2170 H       1  ZINC000004598904    0.1400
     53 H53        -1.3426    4.3681   51.0778 H       1  ZINC000004598904    0.1400
     54 H54         0.9787    4.3781   50.2740 H       1  ZINC000004598904    0.1400
@<TRIPOS>BOND
     1     1     2    1
     2     1    31    1
     3     1    32    1
     4     1    33    1
     5     2     3    1
     6     2    34    1
     7     2    35    1
     8     3     4    1
     9     4     5    2
    10     4     6    1
    11     6    30   ar
    12     6     7   ar
    13     7     8   ar
    14     7    36    1
    15     8     9   ar
    16     8    37    1
    17     9    10    1
    18     9    29   ar
    19    10    11   am
    20    10    38    1
    21    11    12    2
    22    11    13    1
    23    13    14    1
    24    13    39    1
    25    13    40    1
    26    14    15    1
    27    14    41    1
    28    14    42    1
    29    15    16    2
    30    15    17   am
    31    17    18    1
    32    17    43    1
    33    18    28   ar
    34    18    19   ar
    35    19    20   ar
    36    19    44    1
    37    20    21   ar
    38    20    45    1
    39    21    22    1
    40    21    27   ar
    41    22    23    2
    42    22    24    1
    43    24    25    1
    44    25    26    1
    45    25    46    1
    46    25    47    1
    47    26    48    1
    48    26    49    1
    49    26    50    1
    50    27    28   ar
    51    27    51    1
    52    28    52    1
    53    29    30   ar
    54    29    53    1
    55    30    54    1
@<TRIPOS>SUBSTRUCTURE
     1 ZINC000004598904        1 TEMP              0 ****  ****    0 ROOT


##########                                Name:    ZINC000444811358
##########                DOCK_Rotatable_Bonds:                  11
##########                         Heavy_Atoms:                  27
##########                    Molecular_Weight:             374.455
##########                DOCK_Rotatable_Bonds:                  11
##########                       Formal_Charge:          0.00999966
##########                     HBond_Acceptors:                   6
##########                        HBond_Donors:                   2
##########                         Heavy_Atoms:                  27
##########                          Grid_Score:          -39.521259
##########                     Grid_vdw_energy:          -37.730648
##########                      Grid_es_energy:           -1.790613
##########           Internal_energy_repulsive:           21.862860

@<TRIPOS>MOLECULE
ZINC000444811358
 54 55 1 0 0
SMALL
USER_CHARGES


@<TRIPOS>ATOM
      1 C1        -10.6716   -2.0112   52.6736 C.3     1  ZINC000444811358   -0.1100
      2 C2         -9.5639   -1.0052   52.4943 C.ar    1  ZINC000444811358   -0.1300
      3 C3         -8.3408   -1.4080   51.9920 C.ar    1  ZINC000444811358   -0.0700
      4 C4         -7.3230   -0.4886   51.8268 C.ar    1  ZINC000444811358   -0.1500
      5 C5         -7.5286    0.8424   52.1652 C.ar    1  ZINC000444811358    0.1700
      6 N6         -6.4990    1.7750   51.9981 N.am    1  ZINC000444811358   -0.6800
      7 C7         -6.6003    2.7280   51.0504 C.2     1  ZINC000444811358    0.5200
      8 O8         -7.5839    2.7772   50.3425 O.2     1  ZINC000444811358   -0.5000
      9 C9         -5.4913    3.7325   50.8705 C.3     1  ZINC000444811358    0.0200
     10 N10        -4.2799    3.2509   51.5477 N.3     1  ZINC000444811358   -0.5000
     11 C11        -3.1158    3.3170   50.6542 C.3     1  ZINC000444811358    0.0200
     12 C12        -3.0291    2.0287   49.8333 C.3     1  ZINC000444811358    0.1100
     13 H13        -3.3096    1.1805   50.4577 H       1  ZINC000444811358    0.1200
     14 O14        -3.9184    2.1138   48.7180 O.3     1  ZINC000444811358   -0.5400
     15 C15        -1.5965    1.8400   49.3302 C.3     1  ZINC000444811358    0.0300
     16 O16        -0.7111    1.7250   50.4459 O.3     1  ZINC000444811358   -0.3000
     17 C17         0.6184    1.6541   50.1736 C.ar    1  ZINC000444811358    0.1300
     18 C18         1.0560    1.5896   48.8587 C.ar    1  ZINC000444811358   -0.2100
     19 C19         2.4080    1.5182   48.5845 C.ar    1  ZINC000444811358   -0.0800
     20 C20         3.3249    1.5107   49.6194 C.ar    1  ZINC000444811358   -0.1600
     21 C21         2.8915    1.5745   50.9308 C.ar    1  ZINC000444811358   -0.0800
     22 C22         1.5407    1.6522   51.2100 C.ar    1  ZINC000444811358   -0.1500
     23 C23        -4.0358    4.0014   52.7867 C.3     1  ZINC000444811358    0.0700
     24 C24        -3.0648    3.2194   53.6737 C.3     1  ZINC000444811358   -0.1400
     25 C25        -3.4306    5.3647   52.4464 C.3     1  ZINC000444811358   -0.1900
     26 C26        -8.7577    1.2462   52.6694 C.ar    1  ZINC000444811358   -0.1500
     27 C27        -9.7751    0.3226   52.8280 C.ar    1  ZINC000444811358    0.1200
     28 F28       -10.9717    0.7136   53.3183 F       1  ZINC000444811358   -0.1300
     29 H29       -11.2645   -2.0652   51.7606 H       1  ZINC000444811358    0.0700
     30 H30       -10.2424   -2.9902   52.8866 H       1  ZINC000444811358    0.0700
     31 H31       -11.3091   -1.7057   53.5032 H       1  ZINC000444811358    0.0700
     32 H32        -8.1805   -2.4431   51.7286 H       1  ZINC000444811358    0.1400
     33 H33        -6.3677   -0.8050   51.4348 H       1  ZINC000444811358    0.1300
     34 H34        -5.7124    1.7357   52.5642 H       1  ZINC000444811358    0.4100
     35 H35        -5.2866    3.8612   49.8077 H       1  ZINC000444811358    0.1300
     36 H36        -5.7928    4.6875   51.3008 H       1  ZINC000444811358    0.0700
     37 H37        -3.2210    4.1692   49.9828 H       1  ZINC000444811358    0.0500
     38 H38        -2.2085    3.4316   51.2473 H       1  ZINC000444811358    0.1000
     39 H39        -4.8011    2.4386   48.9426 H       1  ZINC000444811358    0.3700
     40 H40        -1.5398    0.9343   48.7264 H       1  ZINC000444811358    0.0600
     41 H41        -1.3081    2.6991   48.7244 H       1  ZINC000444811358    0.0700
     42 H42         0.3401    1.5948   48.0500 H       1  ZINC000444811358    0.1300
     43 H43         2.7492    1.4679   47.5611 H       1  ZINC000444811358    0.1200
     44 H44         4.3816    1.4545   49.4030 H       1  ZINC000444811358    0.1200
     45 H45         3.6097    1.5681   51.7374 H       1  ZINC000444811358    0.1300
     46 H46         1.2026    1.7020   52.2345 H       1  ZINC000444811358    0.1300
     47 H47        -4.9776    4.1440   53.3167 H       1  ZINC000444811358    0.0900
     48 H48        -2.0831    3.1912   53.2009 H       1  ZINC000444811358    0.0500
     49 H49        -2.9864    3.7077   54.6450 H       1  ZINC000444811358    0.0600
     50 H50        -3.4332    2.2023   53.8071 H       1  ZINC000444811358    0.0700
     51 H51        -4.1223    5.9218   51.8145 H       1  ZINC000444811358    0.0500
     52 H52        -3.2495    5.9215   53.3657 H       1  ZINC000444811358    0.0700
     53 H53        -2.4889    5.2222   51.9165 H       1  ZINC000444811358    0.0600
     54 H54        -8.9203    2.2806   52.9338 H       1  ZINC000444811358    0.1500
@<TRIPOS>BOND
     1     1     2    1
     2     1    29    1
     3     1    30    1
     4     1    31    1
     5     2    27   ar
     6     2     3   ar
     7     3     4   ar
     8     3    32    1
     9     4     5   ar
    10     4    33    1
    11     5     6    1
    12     5    26   ar
    13     6     7   am
    14     6    34    1
    15     7     8    2
    16     7     9    1
    17     9    10    1
    18     9    35    1
    19     9    36    1
    20    10    11    1
    21    10    23    1
    22    11    12    1
    23    11    37    1
    24    11    38    1
    25    12    13    1
    26    12    14    1
    27    12    15    1
    28    14    39    1
    29    15    16    1
    30    15    40    1
    31    15    41    1
    32    16    17    1
    33    17    22   ar
    34    17    18   ar
    35    18    19   ar
    36    18    42    1
    37    19    20   ar
    38    19    43    1
    39    20    21   ar
    40    20    44    1
    41    21    22   ar
    42    21    45    1
    43    22    46    1
    44    23    24    1
    45    23    25    1
    46    23    47    1
    47    24    48    1
    48    24    49    1
    49    24    50    1
    50    25    51    1
    51    25    52    1
    52    25    53    1
    53    26    27   ar
    54    26    54    1
    55    27    28    1
@<TRIPOS>SUBSTRUCTURE
     1 ZINC000444811358        1 TEMP              0 ****  ****    0 ROOT


##########                                Name:    ZINC001369071670
##########                DOCK_Rotatable_Bonds:                   8
##########                         Heavy_Atoms:                  24
##########                    Molecular_Weight:             335.366
##########                DOCK_Rotatable_Bonds:                   8
##########                       Formal_Charge:        -2.90573e-07
##########                     HBond_Acceptors:                  10
##########                        HBond_Donors:                   1
##########                         Heavy_Atoms:                  24
##########                          Grid_Score:          -39.428940
##########                     Grid_vdw_energy:          -35.503178
##########                      Grid_es_energy:           -3.925764
##########           Internal_energy_repulsive:           13.401420

@<TRIPOS>MOLECULE
ZINC001369071670
 45 47 1 0 0
SMALL
USER_CHARGES


@<TRIPOS>ATOM
      1 C1         -2.2100    3.4421   59.2460 C.3     1  ZINC001369071670   -0.0800
      2 C2         -1.5991    3.7615   57.9058 C.2     1  ZINC001369071670    0.0000
      3 C3         -2.1620    3.5609   56.6922 C.2     1  ZINC001369071670   -0.2300
      4 C4         -1.1808    4.0265   55.7785 C.2     1  ZINC001369071670    0.2100
      5 O5         -1.2699    4.0397   54.4245 O.3     1  ZINC001369071670   -0.2600
      6 C6         -2.4749    3.5314   53.8486 C.3     1  ZINC001369071670    0.0400
      7 C7         -2.4229    3.6923   52.3511 C.2     1  ZINC001369071670    0.5200
      8 O8         -2.8479    4.7042   51.8348 O.2     1  ZINC001369071670   -0.5100
      9 N9         -1.9041    2.7120   51.5856 N.am    1  ZINC001369071670   -0.7200
     10 C10        -1.8520    2.8692   50.1300 C.3     1  ZINC001369071670    0.1500
     11 H11        -1.9888    3.9196   49.8728 H       1  ZINC001369071670    0.0900
     12 C12        -0.4937    2.3904   49.6135 C.3     1  ZINC001369071670   -0.1700
     13 C13        -2.9640    2.0379   49.4870 C.3     1  ZINC001369071670   -0.1200
     14 C14        -3.6967    1.1130   50.4756 C.3     1  ZINC001369071670    0.0100
     15 N15        -4.9400    1.5288   49.7897 N.3     1  ZINC001369071670   -0.4800
     16 C16        -6.0130    1.7911   50.7581 C.3     1  ZINC001369071670    0.1000
     17 C17        -6.6870    0.4939   51.1246 C.2     1  ZINC001369071670    0.1900
     18 N18        -6.5700   -0.6524   50.5000 N.2     1  ZINC001369071670   -0.3000
     19 N19        -7.2986   -1.5177   51.1167 N.2     1  ZINC001369071670   -0.0700
     20 N20        -7.8774   -0.9531   52.1184 N.2     1  ZINC001369071670   -0.0900
     21 N21        -7.5212    0.2863   52.1602 N.pl3   1  ZINC001369071670   -0.3000
     22 C22        -7.9516    1.2827   53.1441 C.3     1  ZINC001369071670    0.0800
     23 C23        -4.3006    2.7895   49.3525 C.3     1  ZINC001369071670    0.0200
     24 N24        -0.1751    4.4403   56.5019 N.2     1  ZINC001369071670   -0.4100
     25 O25        -0.3939    4.3054   57.6835 O.3     1  ZINC001369071670    0.1000
     26 H26        -1.5154    3.7222   60.0379 H       1  ZINC001369071670    0.0900
     27 H27        -3.1392    3.9995   59.3638 H       1  ZINC001369071670    0.1000
     28 H28        -2.4170    2.3736   59.3055 H       1  ZINC001369071670    0.1000
     29 H29        -3.1329    3.1433   56.4701 H       1  ZINC001369071670    0.1800
     30 H30        -2.5790    2.4751   54.0971 H       1  ZINC001369071670    0.1000
     31 H31        -3.3276    4.0834   54.2439 H       1  ZINC001369071670    0.1000
     32 H32        -1.5652    1.9022   51.9984 H       1  ZINC001369071670    0.4000
     33 H33         0.2984    2.9826   50.0716 H       1  ZINC001369071670    0.0600
     34 H34        -0.3570    1.3400   49.8707 H       1  ZINC001369071670    0.0600
     35 H35        -0.4550    2.5073   48.5305 H       1  ZINC001369071670    0.0700
     36 H36        -2.6465    1.5399   48.5709 H       1  ZINC001369071670    0.1100
     37 H37        -3.4574    0.0571   50.3491 H       1  ZINC001369071670    0.1000
     38 H38        -3.6360    1.4427   51.5128 H       1  ZINC001369071670    0.0800
     39 H39        -5.5908    2.2468   51.6536 H       1  ZINC001369071670    0.1000
     40 H40        -6.7440    2.4681   50.3160 H       1  ZINC001369071670    0.0900
     41 H41        -7.2624    1.2805   53.9887 H       1  ZINC001369071670    0.1000
     42 H42        -7.9576    2.2701   52.6827 H       1  ZINC001369071670    0.1000
     43 H43        -8.9549    1.0387   53.4933 H       1  ZINC001369071670    0.1100
     44 H44        -4.4165    3.6095   50.0611 H       1  ZINC001369071670    0.0800
     45 H45        -4.5438    3.0731   48.3285 H       1  ZINC001369071670    0.1000
@<TRIPOS>BOND
     1     1     2    1
     2     1    26    1
     3     1    27    1
     4     1    28    1
     5     2    25    1
     6     2     3    2
     7     3     4    1
     8     3    29    1
     9     4     5    1
    10     4    24    2
    11     5     6    1
    12     6     7    1
    13     6    30    1
    14     6    31    1
    15     7     8    2
    16     7     9   am
    17     9    10    1
    18     9    32    1
    19    10    11    1
    20    10    12    1
    21    10    13    1
    22    12    33    1
    23    12    34    1
    24    12    35    1
    25    13    23    1
    26    13    14    1
    27    13    36    1
    28    14    15    1
    29    14    37    1
    30    14    38    1
    31    15    16    1
    32    15    23    1
    33    16    17    1
    34    16    39    1
    35    16    40    1
    36    17    21    1
    37    17    18    2
    38    18    19    1
    39    19    20    2
    40    20    21    1
    41    21    22    1
    42    22    41    1
    43    22    42    1
    44    22    43    1
    45    23    44    1
    46    23    45    1
    47    24    25    1
@<TRIPOS>SUBSTRUCTURE
     1 ZINC001369071670        1 TEMP              0 ****  ****    0 ROOT


##########                                Name:    ZINC000809503567
##########                DOCK_Rotatable_Bonds:                   9
##########                         Heavy_Atoms:                  26
##########                    Molecular_Weight:             353.378
##########                DOCK_Rotatable_Bonds:                   9
##########                       Formal_Charge:          -0.0200002
##########                     HBond_Acceptors:                   7
##########                        HBond_Donors:                   1
##########                         Heavy_Atoms:                  26
##########                          Grid_Score:          -39.410595
##########                     Grid_vdw_energy:          -38.218636
##########                      Grid_es_energy:           -1.191960
##########           Internal_energy_repulsive:           12.228767

@<TRIPOS>MOLECULE
ZINC000809503567
 45 46 1 0 0
SMALL
USER_CHARGES


@<TRIPOS>ATOM
      1 C1          2.5432    1.1332   50.5321 C.3     1  ZINC000809503567    0.0200
      2 O2          1.7480    1.9517   51.3922 O.3     1  ZINC000809503567   -0.3100
      3 C3          0.4528    2.1438   51.0355 C.ar    1  ZINC000809503567    0.1900
      4 C4         -0.0655    1.5003   49.9228 C.ar    1  ZINC000809503567   -0.2100
      5 C5         -1.3841    1.6966   49.5606 C.ar    1  ZINC000809503567   -0.0200
      6 C6         -2.1971    2.5360   50.3036 C.ar    1  ZINC000809503567   -0.1500
      7 C7         -3.6336    2.7419   49.8973 C.3     1  ZINC000809503567    0.1700
      8 N8         -4.4596    1.6732   50.4648 N.am    1  ZINC000809503567   -0.7000
      9 C9         -5.7729    1.6075   50.1691 C.2     1  ZINC000809503567    0.5100
     10 O10        -6.2715    2.4343   49.4341 O.2     1  ZINC000809503567   -0.4900
     11 C11        -6.6150    0.5163   50.7467 C.2     1  ZINC000809503567    0.5100
     12 O12        -6.6430   -0.5744   50.2153 O.2     1  ZINC000809503567   -0.5000
     13 N13        -7.3434    0.7435   51.8577 N.am    1  ZINC000809503567   -0.4600
     14 C14        -7.3082    2.0596   52.5002 C.3     1  ZINC000809503567    0.0800
     15 O15        -8.1426   -0.2900   52.4039 O.3     1  ZINC000809503567   -0.1100
     16 C16        -9.2826    0.1776   53.1276 C.3     1  ZINC000809503567    0.0800
     17 C17       -10.1876   -0.9848   53.4451 C.ar    1  ZINC000809503567   -0.0900
     18 C18       -10.3949   -1.9762   52.5044 C.ar    1  ZINC000809503567   -0.1000
     19 C19       -11.2251   -3.0426   52.7956 C.ar    1  ZINC000809503567   -0.1300
     20 C20       -11.8475   -3.1177   54.0276 C.ar    1  ZINC000809503567   -0.1100
     21 C21       -11.6394   -2.1266   54.9686 C.ar    1  ZINC000809503567   -0.1300
     22 C22       -10.8059   -1.0625   54.6790 C.ar    1  ZINC000809503567   -0.0800
     23 C23        -1.6983    3.1839   51.4137 C.ar    1  ZINC000809503567   -0.0100
     24 C24        -0.3685    2.9896   51.7943 C.ar    1  ZINC000809503567   -0.0600
     25 C25         0.1561    3.6594   52.9461 C.1     1  ZINC000809503567    0.2600
     26 N26         0.5722    4.1907   53.8599 N.1     1  ZINC000809503567   -0.4100
     27 H27         2.5763    1.5766   49.5370 H       1  ZINC000809503567    0.0600
     28 H28         3.5548    1.0617   50.9318 H       1  ZINC000809503567    0.1100
     29 H29         2.1052    0.1369   50.4717 H       1  ZINC000809503567    0.0600
     30 H30         0.5623    0.8446   49.3377 H       1  ZINC000809503567    0.1400
     31 H31        -1.7832    1.1928   48.6927 H       1  ZINC000809503567    0.1400
     32 H32        -3.9816    3.7060   50.2683 H       1  ZINC000809503567    0.0900
     33 H33        -3.7101    2.7218   48.8102 H       1  ZINC000809503567    0.0900
     34 H34        -4.0613    1.0130   51.0534 H       1  ZINC000809503567    0.4100
     35 H35        -8.0906    2.6907   52.0788 H       1  ZINC000809503567    0.0800
     36 H36        -7.4717    1.9452   53.5718 H       1  ZINC000809503567    0.0800
     37 H37        -6.3363    2.5220   52.3283 H       1  ZINC000809503567    0.0900
     38 H38        -8.9561    0.6479   54.0553 H       1  ZINC000809503567    0.0700
     39 H39        -9.8239    0.9049   52.5226 H       1  ZINC000809503567    0.0600
     40 H40        -9.9087   -1.9176   51.5419 H       1  ZINC000809503567    0.1200
     41 H41       -11.3877   -3.8168   52.0604 H       1  ZINC000809503567    0.1200
     42 H42       -12.4966   -3.9503   54.2549 H       1  ZINC000809503567    0.1200
     43 H43       -12.1260   -2.1851   55.9311 H       1  ZINC000809503567    0.1200
     44 H44       -10.6433   -0.2883   55.4142 H       1  ZINC000809503567    0.1300
     45 H45        -2.3359    3.8376   51.9903 H       1  ZINC000809503567    0.1400
@<TRIPOS>BOND
     1     1     2    1
     2     1    27    1
     3     1    28    1
     4     1    29    1
     5     2     3    1
     6     3    24   ar
     7     3     4   ar
     8     4     5   ar
     9     4    30    1
    10     5     6   ar
    11     5    31    1
    12     6     7    1
    13     6    23   ar
    14     7     8    1
    15     7    32    1
    16     7    33    1
    17     8     9   am
    18     8    34    1
    19     9    10    2
    20     9    11    1
    21    11    12    2
    22    11    13   am
    23    13    14    1
    24    13    15    1
    25    14    35    1
    26    14    36    1
    27    14    37    1
    28    15    16    1
    29    16    17    1
    30    16    38    1
    31    16    39    1
    32    17    22   ar
    33    17    18   ar
    34    18    19   ar
    35    18    40    1
    36    19    20   ar
    37    19    41    1
    38    20    21   ar
    39    20    42    1
    40    21    22   ar
    41    21    43    1
    42    22    44    1
    43    23    24   ar
    44    23    45    1
    45    24    25    1
    46    25    26    3
@<TRIPOS>SUBSTRUCTURE
     1 ZINC000809503567        1 TEMP              0 ****  ****    0 ROOT


##########                                Name:    ZINC000499369364
##########                DOCK_Rotatable_Bonds:                   9
##########                         Heavy_Atoms:                  25
##########                    Molecular_Weight:             384.527
##########                DOCK_Rotatable_Bonds:                   9
##########                       Formal_Charge:        -5.88596e-07
##########                     HBond_Acceptors:                  10
##########                        HBond_Donors:                   1
##########                         Heavy_Atoms:                  25
##########                          Grid_Score:          -39.400494
##########                     Grid_vdw_energy:          -38.208305
##########                      Grid_es_energy:           -1.192188
##########           Internal_energy_repulsive:           31.537188

@<TRIPOS>MOLECULE
ZINC000499369364
 49 51 1 0 0
SMALL
USER_CHARGES


@<TRIPOS>ATOM
      1 C1        -11.4937    3.0080   49.8523 C.3     1  ZINC000499369364   -0.1500
      2 C2        -10.2094    3.7095   49.4056 C.3     1  ZINC000499369364   -0.1000
      3 C3        -10.5654    4.9598   48.5987 C.3     1  ZINC000499369364   -0.1500
      4 C4         -9.3937    4.1117   50.6359 C.3     1  ZINC000499369364    0.1500
      5 H5         -8.5131    4.6715   50.3209 H       1  ZINC000499369364    0.0900
      6 C6        -10.2518    4.9847   51.5537 C.3     1  ZINC000499369364   -0.1700
      7 N7         -8.9746    2.9082   51.3586 N.am    1  ZINC000499369364   -0.7200
      8 C8         -7.8581    2.9299   52.1133 C.2     1  ZINC000499369364    0.5100
      9 O9         -7.2013    3.9461   52.1955 O.2     1  ZINC000499369364   -0.5100
     10 C10        -7.4259    1.6914   52.8552 C.3     1  ZINC000499369364    0.1200
     11 H11        -6.4274    1.8570   53.2597 H       1  ZINC000499369364    0.1200
     12 C12        -8.4031    1.4483   54.0279 C.3     1  ZINC000499369364   -0.0800
     13 S13        -9.5355    0.1906   53.3002 S.3     1  ZINC000499369364   -0.2400
     14 C14        -8.2226   -0.5741   52.2610 C.3     1  ZINC000499369364    0.1400
     15 N15        -7.3728    0.5795   51.9183 N.am    1  ZINC000499369364   -0.6000
     16 C16        -6.5975    0.6040   50.8162 C.2     1  ZINC000499369364    0.5600
     17 O17        -6.5833   -0.3469   50.0634 O.2     1  ZINC000499369364   -0.5000
     18 C18        -5.7480    1.8129   50.5193 C.3     1  ZINC000499369364   -0.1500
     19 S19        -4.1050    1.2780   49.9801 S.3     1  ZINC000499369364    0.1300
     20 C20        -3.1818    2.7409   50.3153 C.2     1  ZINC000499369364    0.2000
     21 N21        -3.6068    3.8009   50.9683 N.2     1  ZINC000499369364   -0.3400
     22 N22        -2.6814    4.6889   51.0349 N.2     1  ZINC000499369364   -0.0300
     23 N23        -1.6161    4.2714   50.4411 N.2     1  ZINC000499369364   -0.0800
     24 N24        -1.8995    2.9833   49.9543 N.pl3   1  ZINC000499369364   -0.3300
     25 C25        -1.0027    2.0971   49.2085 C.3     1  ZINC000499369364    0.0500
     26 C26         0.3199    2.6850   48.7126 C.3     1  ZINC000499369364   -0.1500
     27 C27         0.3124    1.6954   49.8794 C.3     1  ZINC000499369364   -0.1600
     28 H28       -12.0750    2.7216   48.9758 H       1  ZINC000499369364    0.0600
     29 H29       -11.2401    2.1174   50.4271 H       1  ZINC000499369364    0.0600
     30 H30       -12.0810    3.6855   50.4722 H       1  ZINC000499369364    0.0600
     31 H31        -9.6222    3.0321   48.7857 H       1  ZINC000499369364    0.0800
     32 H32       -11.1467    4.6733   47.7222 H       1  ZINC000499369364    0.0600
     33 H33       -11.1527    5.6372   49.2186 H       1  ZINC000499369364    0.0600
     34 H34        -9.6505    5.4596   48.2805 H       1  ZINC000499369364    0.0500
     35 H35       -11.1324    4.4249   51.8686 H       1  ZINC000499369364    0.0600
     36 H36        -9.6706    5.2712   52.4303 H       1  ZINC000499369364    0.0600
     37 H37       -10.5637    5.8802   51.0161 H       1  ZINC000499369364    0.0700
     38 H38        -9.5005    2.0957   51.2939 H       1  ZINC000499369364    0.4000
     39 H39        -7.8803    1.0484   54.8968 H       1  ZINC000499369364    0.1200
     40 H40        -8.9429    2.3601   54.2832 H       1  ZINC000499369364    0.1300
     41 H41        -7.6609   -1.3144   52.8305 H       1  ZINC000499369364    0.1100
     42 H42        -8.6507   -1.0191   51.3627 H       1  ZINC000499369364    0.1200
     43 H43        -6.2160    2.4007   49.7296 H       1  ZINC000499369364    0.1300
     44 H44        -5.6550    2.4214   51.4188 H       1  ZINC000499369364    0.1300
     45 H45        -1.4925    1.3558   48.5770 H       1  ZINC000499369364    0.1600
     46 H46         0.7005    2.3307   47.7546 H       1  ZINC000499369364    0.1200
     47 H47         0.5227    3.7312   48.9413 H       1  ZINC000499369364    0.1200
     48 H48         0.5102    2.0906   50.8758 H       1  ZINC000499369364    0.1100
     49 H49         0.6879    0.6900   49.6891 H       1  ZINC000499369364    0.1200
@<TRIPOS>BOND
     1     1     2    1
     2     1    28    1
     3     1    29    1
     4     1    30    1
     5     2     3    1
     6     2     4    1
     7     2    31    1
     8     3    32    1
     9     3    33    1
    10     3    34    1
    11     4     5    1
    12     4     6    1
    13     4     7    1
    14     6    35    1
    15     6    36    1
    16     6    37    1
    17     7     8   am
    18     7    38    1
    19     8     9    2
    20     8    10    1
    21    10    11    1
    22    10    15    1
    23    10    12    1
    24    12    13    1
    25    12    39    1
    26    12    40    1
    27    13    14    1
    28    14    15    1
    29    14    41    1
    30    14    42    1
    31    15    16   am
    32    16    17    2
    33    16    18    1
    34    18    19    1
    35    18    43    1
    36    18    44    1
    37    19    20    1
    38    20    24    1
    39    20    21    2
    40    21    22    1
    41    22    23    2
    42    23    24    1
    43    24    25    1
    44    25    27    1
    45    25    26    1
    46    25    45    1
    47    26    27    1
    48    26    46    1
    49    26    47    1
    50    27    48    1
    51    27    49    1
@<TRIPOS>SUBSTRUCTURE
     1 ZINC000499369364        1 TEMP              0 ****  ****    0 ROOT


##########                                Name:    ZINC000562561773
##########                DOCK_Rotatable_Bonds:                   6
##########                         Heavy_Atoms:                  26
##########                    Molecular_Weight:             371.466
##########                DOCK_Rotatable_Bonds:                   6
##########                       Formal_Charge:           0.0199999
##########                     HBond_Acceptors:                   9
##########                        HBond_Donors:                   0
##########                         Heavy_Atoms:                  26
##########                          Grid_Score:          -39.393707
##########                     Grid_vdw_energy:          -38.199818
##########                      Grid_es_energy:           -1.193890
##########           Internal_energy_repulsive:            9.334548

@<TRIPOS>MOLECULE
ZINC000562561773
 47 50 1 0 0
SMALL
USER_CHARGES


@<TRIPOS>ATOM
      1 C1         -4.5795    0.6054   50.2610 C.3     1  ZINC000562561773   -0.1100
      2 C2         -5.7833    0.5989   51.1677 C.ar    1  ZINC000562561773   -0.0400
      3 C3         -6.6043   -0.5113   51.2151 C.ar    1  ZINC000562561773   -0.1200
      4 C4         -7.7088   -0.5235   52.0437 C.ar    1  ZINC000562561773   -0.0700
      5 C5         -7.9987    0.5857   52.8357 C.ar    1  ZINC000562561773   -0.0300
      6 C6         -9.1854    0.5736   53.7272 C.2     1  ZINC000562561773    0.2200
      7 N7         -9.4814    1.4642   54.6376 N.2     1  ZINC000562561773   -0.3700
      8 O8        -10.5171    1.1644   55.1929 O.3     1  ZINC000562561773    0.0900
      9 C9        -10.9979    0.0267   54.6818 C.2     1  ZINC000562561773    0.1900
     10 C10       -12.2631   -0.6777   55.0988 C.3     1  ZINC000562561773   -0.0100
     11 C11       -11.9087   -1.9241   55.9121 C.3     1  ZINC000562561773   -0.1200
     12 S12       -10.9658   -1.4393   57.3792 S.3     1  ZINC000562561773    0.0600
     13 C13       -10.4966   -3.0278   57.9801 C.2     1  ZINC000562561773    0.2100
     14 N14       -10.8883   -4.1902   57.5049 N.2     1  ZINC000562561773   -0.3300
     15 N15       -10.3595   -5.1507   58.1734 N.2     1  ZINC000562561773   -0.0300
     16 N16        -9.6046   -4.6835   59.1082 N.2     1  ZINC000562561773   -0.0700
     17 N17        -9.6605   -3.2820   59.0143 N.pl3   1  ZINC000562561773   -0.3600
     18 C18        -8.9694   -2.3055   59.8599 C.3     1  ZINC000562561773    0.0800
     19 N19       -10.1660   -0.3574   53.7458 N.2     1  ZINC000562561773   -0.4600
     20 C20        -7.1723    1.7051   52.7890 C.ar    1  ZINC000562561773   -0.1100
     21 C21        -6.0615    1.7077   51.9584 C.ar    1  ZINC000562561773    0.0800
     22 N22        -5.2289    2.8284   51.9084 N.3     1  ZINC000562561773   -0.4800
     23 C23        -5.9994    4.0486   51.5566 C.3     1  ZINC000562561773    0.0400
     24 C24        -5.0884    5.1988   52.0542 C.3     1  ZINC000562561773   -0.1200
     25 C25        -4.4954    4.6287   53.3631 C.3     1  ZINC000562561773   -0.1300
     26 C26        -4.6256    3.0999   53.2312 C.3     1  ZINC000562561773    0.0400
     27 H27        -3.7173    0.2111   50.7989 H       1  ZINC000562561773    0.0700
     28 H28        -4.7786   -0.0164   49.3882 H       1  ZINC000562561773    0.0600
     29 H29        -4.3718    1.6263   49.9402 H       1  ZINC000562561773    0.0800
     30 H30        -6.3817   -1.3720   50.6018 H       1  ZINC000562561773    0.1400
     31 H31        -8.3484   -1.3931   52.0777 H       1  ZINC000562561773    0.1400
     32 H32       -12.8689   -0.0065   55.7076 H       1  ZINC000562561773    0.1200
     33 H33       -12.8252   -0.9703   54.2119 H       1  ZINC000562561773    0.1300
     34 H34       -12.8239   -2.4300   56.2193 H       1  ZINC000562561773    0.1100
     35 H35       -11.3085   -2.5983   55.3010 H       1  ZINC000562561773    0.1100
     36 H36        -7.9959   -2.0748   59.4274 H       1  ZINC000562561773    0.1000
     37 H37        -9.5640   -1.3942   59.9232 H       1  ZINC000562561773    0.1000
     38 H38        -8.8340   -2.7211   60.8585 H       1  ZINC000562561773    0.1100
     39 H39        -7.3932    2.5673   53.4008 H       1  ZINC000562561773    0.1300
     40 H40        -6.1465    4.1132   50.4785 H       1  ZINC000562561773    0.0900
     41 H41        -6.9565    4.0629   52.0781 H       1  ZINC000562561773    0.0500
     42 H42        -4.2992    5.4059   51.3314 H       1  ZINC000562561773    0.0800
     43 H43        -5.6744    6.0958   52.2547 H       1  ZINC000562561773    0.0700
     44 H44        -3.4473    4.9123   53.4587 H       1  ZINC000562561773    0.0800
     45 H45        -5.0643    4.9841   54.2224 H       1  ZINC000562561773    0.0700
     46 H46        -5.2706    2.7127   54.0200 H       1  ZINC000562561773    0.0500
     47 H47        -3.6408    2.6367   53.2922 H       1  ZINC000562561773    0.0800
@<TRIPOS>BOND
     1     1     2    1
     2     1    27    1
     3     1    28    1
     4     1    29    1
     5     2    21   ar
     6     2     3   ar
     7     3     4   ar
     8     3    30    1
     9     4     5   ar
    10     4    31    1
    11     5     6    1
    12     5    20   ar
    13     6    19    1
    14     6     7    2
    15     7     8    1
    16     8     9    1
    17     9    10    1
    18     9    19    2
    19    10    11    1
    20    10    32    1
    21    10    33    1
    22    11    12    1
    23    11    34    1
    24    11    35    1
    25    12    13    1
    26    13    17    1
    27    13    14    2
    28    14    15    1
    29    15    16    2
    30    16    17    1
    31    17    18    1
    32    18    36    1
    33    18    37    1
    34    18    38    1
    35    20    21   ar
    36    20    39    1
    37    21    22    1
    38    22    26    1
    39    22    23    1
    40    23    24    1
    41    23    40    1
    42    23    41    1
    43    24    25    1
    44    24    42    1
    45    24    43    1
    46    25    26    1
    47    25    44    1
    48    25    45    1
    49    26    46    1
    50    26    47    1
@<TRIPOS>SUBSTRUCTURE
     1 ZINC000562561773        1 TEMP              0 ****  ****    0 ROOT


##########                                Name:    ZINC000110375116
##########                DOCK_Rotatable_Bonds:                  10
##########                         Heavy_Atoms:                  27
##########                    Molecular_Weight:             396.511
##########                DOCK_Rotatable_Bonds:                  10
##########                       Formal_Charge:        -2.23517e-07
##########                     HBond_Acceptors:                   9
##########                        HBond_Donors:                   0
##########                         Heavy_Atoms:                  27
##########                          Grid_Score:          -39.259193
##########                     Grid_vdw_energy:          -37.414669
##########                      Grid_es_energy:           -1.844526
##########           Internal_energy_repulsive:           36.685764

@<TRIPOS>MOLECULE
ZINC000110375116
 55 56 1 0 0
SMALL
USER_CHARGES


@<TRIPOS>ATOM
      1 C1         -9.8204    1.1907   55.0526 C.3     1  ZINC000110375116   -0.1700
      2 C2         -9.2337    1.3828   53.6526 C.3     1  ZINC000110375116    0.1000
      3 N3         -8.9729    0.0738   53.0486 N.am    1  ZINC000110375116   -0.6200
      4 C4         -9.8626   -1.0546   53.3334 C.3     1  ZINC000110375116    0.1100
      5 C5        -11.2310   -0.7979   52.6990 C.3     1  ZINC000110375116   -0.1700
      6 C6         -7.9144   -0.0922   52.2310 C.2     1  ZINC000110375116    0.5100
      7 O7         -7.6993   -1.1755   51.7298 O.2     1  ZINC000110375116   -0.5300
      8 C8         -6.9981    1.0682   51.9395 C.3     1  ZINC000110375116   -0.1400
      9 C9         -6.3939    0.9028   50.5436 C.3     1  ZINC000110375116   -0.0900
     10 C10        -6.0686    2.2802   49.9622 C.3     1  ZINC000110375116   -0.1400
     11 C11        -5.1564    3.0209   50.9058 C.2     1  ZINC000110375116    0.5200
     12 O12        -5.5984    3.9069   51.6061 O.2     1  ZINC000110375116   -0.5300
     13 N13        -3.8493    2.6987   50.9713 N.am    1  ZINC000110375116   -0.6200
     14 C14        -3.2990    1.6303   50.1255 C.3     1  ZINC000110375116    0.0900
     15 C15        -2.1257    2.1996   49.3183 C.3     1  ZINC000110375116    0.1000
     16 N16        -1.2252    2.9108   50.2365 N.am    1  ZINC000110375116   -1.0000
     17 S17         0.3810    2.5156   50.3162 S.o2    1  ZINC000110375116    2.7000
     18 O18         0.9884    3.4753   51.1703 O.2     1  ZINC000110375116   -0.9400
     19 O19         0.4386    1.1160   50.5546 O.2     1  ZINC000110375116   -0.9500
     20 C20         1.0624    2.7755   48.7122 C.ar    1  ZINC000110375116   -0.7400
     21 C21         1.4472    1.6976   47.9300 C.ar    1  ZINC000110375116    0.0200
     22 C22         1.9781    1.9497   46.6740 C.ar    1  ZINC000110375116   -0.1900
     23 C23         2.1048    3.2577   46.2467 C.ar    1  ZINC000110375116    0.1500
     24 N24         1.7280    4.2589   47.0180 N.ar    1  ZINC000110375116   -0.4900
     25 C25         1.2144    4.0565   48.2155 C.ar    1  ZINC000110375116    0.2000
     26 C26        -1.7755    3.9792   51.0823 C.3     1  ZINC000110375116    0.1000
     27 C27        -2.9476    3.4137   51.8855 C.3     1  ZINC000110375116    0.1000
     28 H28       -10.0144    2.1646   55.5020 H       1  ZINC000110375116    0.0700
     29 H29       -10.7529    0.6308   54.9819 H       1  ZINC000110375116    0.0600
     30 H30        -9.1118    0.6398   55.6710 H       1  ZINC000110375116    0.0600
     31 H31        -9.9423    1.9337   53.0341 H       1  ZINC000110375116    0.0800
     32 H32        -8.3011    1.9427   53.7233 H       1  ZINC000110375116    0.0800
     33 H33        -9.4355   -1.9677   52.9187 H       1  ZINC000110375116    0.0800
     34 H34        -9.9767   -1.1642   54.4118 H       1  ZINC000110375116    0.0800
     35 H35       -11.8930   -1.6375   52.9109 H       1  ZINC000110375116    0.0700
     36 H36       -11.6581    0.1152   53.1138 H       1  ZINC000110375116    0.0500
     37 H37       -11.1168   -0.6884   51.6206 H       1  ZINC000110375116    0.0600
     38 H38        -7.5647    1.9983   51.9822 H       1  ZINC000110375116    0.0900
     39 H39        -6.1990    1.0951   52.6804 H       1  ZINC000110375116    0.0900
     40 H40        -5.4805    0.3118   50.6108 H       1  ZINC000110375116    0.0800
     41 H41        -7.1086    0.3948   49.8962 H       1  ZINC000110375116    0.0800
     42 H42        -5.5743    2.1602   48.9983 H       1  ZINC000110375116    0.1000
     43 H43        -6.9910    2.8457   49.8298 H       1  ZINC000110375116    0.1000
     44 H44        -2.9480    0.8111   50.7530 H       1  ZINC000110375116    0.0800
     45 H45        -4.0699    1.2688   49.4450 H       1  ZINC000110375116    0.1000
     46 H46        -1.5861    1.3859   48.8337 H       1  ZINC000110375116    0.1100
     47 H47        -2.5016    2.8920   48.5651 H       1  ZINC000110375116    0.0800
     48 H48         1.3366    0.6856   48.2905 H       1  ZINC000110375116    0.1500
     49 H49         2.2887    1.1342   46.0378 H       1  ZINC000110375116    0.1500
     50 H50         2.5177    3.4626   45.2700 H       1  ZINC000110375116    0.1700
     51 H51         0.9172    4.9015   48.8186 H       1  ZINC000110375116    0.1700
     52 H52        -1.0045    4.3408   51.7628 H       1  ZINC000110375116    0.1100
     53 H53        -2.1265    4.7984   50.4547 H       1  ZINC000110375116    0.0800
     54 H54        -3.4863    4.2284   52.3694 H       1  ZINC000110375116    0.1100
     55 H55        -2.5741    2.7203   52.6390 H       1  ZINC000110375116    0.0800
@<TRIPOS>BOND
     1     1     2    1
     2     1    28    1
     3     1    29    1
     4     1    30    1
     5     2     3    1
     6     2    31    1
     7     2    32    1
     8     3     4    1
     9     3     6   am
    10     4     5    1
    11     4    33    1
    12     4    34    1
    13     5    35    1
    14     5    36    1
    15     5    37    1
    16     6     7    2
    17     6     8    1
    18     8     9    1
    19     8    38    1
    20     8    39    1
    21     9    10    1
    22     9    40    1
    23     9    41    1
    24    10    11    1
    25    10    42    1
    26    10    43    1
    27    11    12    2
    28    11    13   am
    29    13    27    1
    30    13    14    1
    31    14    15    1
    32    14    44    1
    33    14    45    1
    34    15    16    1
    35    15    46    1
    36    15    47    1
    37    16    17   am
    38    16    26    1
    39    17    18    2
    40    17    19    2
    41    17    20    1
    42    20    25   ar
    43    20    21   ar
    44    21    22   ar
    45    21    48    1
    46    22    23   ar
    47    22    49    1
    48    23    24   ar
    49    23    50    1
    50    24    25   ar
    51    25    51    1
    52    26    27    1
    53    26    52    1
    54    26    53    1
    55    27    54    1
    56    27    55    1
@<TRIPOS>SUBSTRUCTURE
     1 ZINC000110375116        1 TEMP              0 ****  ****    0 ROOT


##########                                Name:    ZINC000766421809
##########                DOCK_Rotatable_Bonds:                   7
##########                         Heavy_Atoms:                  26
##########                    Molecular_Weight:             358.372
##########                DOCK_Rotatable_Bonds:                   7
##########                       Formal_Charge:         4.61936e-07
##########                     HBond_Acceptors:                   8
##########                        HBond_Donors:                   0
##########                         Heavy_Atoms:                  26
##########                          Grid_Score:          -39.217480
##########                     Grid_vdw_energy:          -38.589359
##########                      Grid_es_energy:           -0.628121
##########           Internal_energy_repulsive:            5.863675

@<TRIPOS>MOLECULE
ZINC000766421809
 45 47 1 0 0
SMALL
USER_CHARGES


@<TRIPOS>ATOM
      1 C1        -12.3830   -1.6888   60.4171 C.3     1  ZINC000766421809   -0.0700
      2 C2        -12.6811   -2.4156   59.1309 C.2     1  ZINC000766421809    0.0700
      3 N3        -13.8175   -2.9818   58.8154 N.2     1  ZINC000766421809   -0.2900
      4 N4        -13.6860   -3.5462   57.5400 N.pl3   1  ZINC000766421809   -0.3700
      5 C5        -14.7250   -4.2762   56.8093 C.3     1  ZINC000766421809    0.1000
      6 C6        -12.4333   -3.2988   57.1034 C.2     1  ZINC000766421809    0.0700
      7 C7        -11.8540   -3.7234   55.7787 C.3     1  ZINC000766421809    0.1400
      8 O8        -11.9372   -2.6205   54.8382 O.3     1  ZINC000766421809   -0.3400
      9 C9        -11.4325   -2.8263   53.6114 C.2     1  ZINC000766421809    0.4700
     10 O10       -11.0418   -3.9251   53.2955 O.2     1  ZINC000766421809   -0.5000
     11 C11       -11.3534   -1.6869   52.6284 C.3     1  ZINC000766421809   -0.1100
     12 C12       -10.5240   -0.5507   53.2303 C.3     1  ZINC000766421809   -0.0200
     13 C13        -9.1691   -0.5142   52.5715 C.2     1  ZINC000766421809    0.1900
     14 N14        -8.4335    0.5493   52.3640 N.2     1  ZINC000766421809   -0.4700
     15 C15        -7.3139    0.1027   51.7510 C.2     1  ZINC000766421809    0.2200
     16 C16        -6.1638    0.9281   51.3065 C.ar    1  ZINC000766421809   -0.0300
     17 C17        -5.1932    0.3811   50.4697 C.ar    1  ZINC000766421809   -0.0500
     18 C18        -4.1256    1.1523   50.0584 C.ar    1  ZINC000766421809   -0.1500
     19 C19        -4.0177    2.4687   50.4766 C.ar    1  ZINC000766421809    0.1200
     20 F20        -2.9705    3.2203   50.0719 F       1  ZINC000766421809   -0.1300
     21 C21        -4.9810    3.0169   51.3085 C.ar    1  ZINC000766421809   -0.1200
     22 C22        -4.8588    4.4496   51.7594 C.3     1  ZINC000766421809   -0.1200
     23 C23        -6.0544    2.2545   51.7202 C.ar    1  ZINC000766421809   -0.0600
     24 N24        -7.4346   -1.1934   51.6237 N.2     1  ZINC000766421809   -0.3700
     25 O25        -8.4898   -1.5620   52.0945 O.3     1  ZINC000766421809    0.0900
     26 C26       -11.7924   -2.5961   58.0660 C.2     1  ZINC000766421809   -0.2400
     27 H27       -12.6373   -0.6347   60.3060 H       1  ZINC000766421809    0.0800
     28 H28       -12.9736   -2.1218   61.2244 H       1  ZINC000766421809    0.0700
     29 H29       -11.3227   -1.7841   60.6509 H       1  ZINC000766421809    0.0800
     30 H30       -15.3040   -3.5773   56.2059 H       1  ZINC000766421809    0.0800
     31 H31       -14.2595   -5.0178   56.1600 H       1  ZINC000766421809    0.0900
     32 H32       -15.3843   -4.7769   57.5184 H       1  ZINC000766421809    0.0900
     33 H33       -10.8105   -4.0084   55.9131 H       1  ZINC000766421809    0.0900
     34 H34       -12.4159   -4.5738   55.3923 H       1  ZINC000766421809    0.0900
     35 H35       -10.8822   -2.0326   51.7083 H       1  ZINC000766421809    0.1200
     36 H36       -12.3583   -1.3261   52.4087 H       1  ZINC000766421809    0.1200
     37 H37       -11.0340    0.3983   53.0651 H       1  ZINC000766421809    0.1200
     38 H38       -10.4032   -0.7167   54.3008 H       1  ZINC000766421809    0.1200
     39 H39        -5.2763   -0.6453   50.1437 H       1  ZINC000766421809    0.1500
     40 H40        -3.3729    0.7291   49.4098 H       1  ZINC000766421809    0.1500
     41 H41        -5.3659    5.0995   51.0463 H       1  ZINC000766421809    0.0800
     42 H42        -5.3166    4.5616   52.7423 H       1  ZINC000766421809    0.0800
     43 H43        -3.8054    4.7241   51.8159 H       1  ZINC000766421809    0.0700
     44 H44        -6.8046    2.6825   52.3686 H       1  ZINC000766421809    0.1400
     45 H45       -10.7728   -2.2426   58.0223 H       1  ZINC000766421809    0.1500
@<TRIPOS>BOND
     1     1     2    1
     2     1    27    1
     3     1    28    1
     4     1    29    1
     5     2    26    1
     6     2     3    2
     7     3     4    1
     8     4     5    1
     9     4     6    1
    10     5    30    1
    11     5    31    1
    12     5    32    1
    13     6     7    1
    14     6    26    2
    15     7     8    1
    16     7    33    1
    17     7    34    1
    18     8     9    1
    19     9    10    2
    20     9    11    1
    21    11    12    1
    22    11    35    1
    23    11    36    1
    24    12    13    1
    25    12    37    1
    26    12    38    1
    27    13    25    1
    28    13    14    2
    29    14    15    1
    30    15    16    1
    31    15    24    2
    32    16    23   ar
    33    16    17   ar
    34    17    18   ar
    35    17    39    1
    36    18    19   ar
    37    18    40    1
    38    19    20    1
    39    19    21   ar
    40    21    22    1
    41    21    23   ar
    42    22    41    1
    43    22    42    1
    44    22    43    1
    45    23    44    1
    46    24    25    1
    47    26    45    1
@<TRIPOS>SUBSTRUCTURE
     1 ZINC000766421809        1 TEMP              0 ****  ****    0 ROOT


##########                                Name:    ZINC000859608860
##########                DOCK_Rotatable_Bonds:                   8
##########                         Heavy_Atoms:                  24
##########                    Molecular_Weight:             394.268
##########                DOCK_Rotatable_Bonds:                   8
##########                       Formal_Charge:          -0.0200003
##########                     HBond_Acceptors:                   6
##########                        HBond_Donors:                   1
##########                         Heavy_Atoms:                  24
##########                          Grid_Score:          -39.190647
##########                     Grid_vdw_energy:          -38.010063
##########                      Grid_es_energy:           -1.180584
##########           Internal_energy_repulsive:            7.114246

@<TRIPOS>MOLECULE
ZINC000859608860
 44 45 1 0 0
SMALL
USER_CHARGES


@<TRIPOS>ATOM
      1 C1          0.7488    1.4148   50.6851 C.3     1  ZINC000859608860   -0.1400
      2 C2          0.1963    2.3933   49.6467 C.3     1  ZINC000859608860   -0.0800
      3 C3          0.0236    3.7723   50.2865 C.3     1  ZINC000859608860   -0.1400
      4 C4          1.1713    2.4945   48.4720 C.3     1  ZINC000859608860   -0.1400
      5 C5         -1.1586    1.8915   49.1432 C.3     1  ZINC000859608860    0.1300
      6 N6         -2.1189    1.8854   50.2495 N.am    1  ZINC000859608860   -0.7300
      7 C7         -3.4393    1.9792   49.9962 C.2     1  ZINC000859608860    0.5100
      8 O8         -3.8324    2.0702   48.8525 O.2     1  ZINC000859608860   -0.5100
      9 C9         -4.4272    1.9711   51.1341 C.3     1  ZINC000859608860    0.0500
     10 O10        -5.7693    1.7950   50.6087 O.3     1  ZINC000859608860   -0.3100
     11 C11        -6.3537    0.5973   50.8116 C.2     1  ZINC000859608860    0.5600
     12 O12        -5.9056   -0.3964   50.2739 O.2     1  ZINC000859608860   -0.5100
     13 C13        -7.5343    0.4930   51.6838 C.2     1  ZINC000859608860   -0.0400
     14 C14        -8.1765   -0.6588   52.0373 C.2     1  ZINC000859608860    0.0500
     15 N15        -9.2075   -0.2999   52.8495 N.pl3   1  ZINC000859608860   -0.4100
     16 C16       -10.1329   -1.1681   53.4466 C.ar    1  ZINC000859608860    0.1400
     17 C17       -10.4675   -2.3628   52.8236 C.ar    1  ZINC000859608860   -0.1200
     18 C18       -11.3787   -3.2165   53.4139 C.ar    1  ZINC000859608860   -0.0600
     19 C19       -11.9580   -2.8818   54.6250 C.ar    1  ZINC000859608860   -0.1000
     20 Br20      -13.2053   -4.0530   55.4302 Br      1  ZINC000859608860   -0.0300
     21 C21       -11.6259   -1.6920   55.2480 C.ar    1  ZINC000859608860   -0.0600
     22 C22       -10.7116   -0.8371   54.6643 C.ar    1  ZINC000859608860   -0.1200
     23 C23        -9.1778    1.0550   52.9775 C.2     1  ZINC000859608860    0.2000
     24 N24        -8.1788    1.5243   52.2879 N.2     1  ZINC000859608860   -0.4300
     25 H25         0.0542    1.3426   51.5220 H       1  ZINC000859608860    0.0500
     26 H26         0.8717    0.4324   50.2292 H       1  ZINC000859608860    0.0600
     27 H27         1.7140    1.7723   51.0438 H       1  ZINC000859608860    0.0600
     28 H28         0.9889    4.1298   50.6452 H       1  ZINC000859608860    0.0600
     29 H29        -0.3698    4.4694   49.5467 H       1  ZINC000859608860    0.0600
     30 H30        -0.6709    3.7002   51.1235 H       1  ZINC000859608860    0.0500
     31 H31         1.2942    1.5121   48.0161 H       1  ZINC000859608860    0.0600
     32 H32         0.7777    3.1916   47.7322 H       1  ZINC000859608860    0.0600
     33 H33         2.1365    2.8521   48.8307 H       1  ZINC000859608860    0.0600
     34 H34        -1.5190    2.5499   48.3528 H       1  ZINC000859608860    0.0700
     35 H35        -1.0487    0.8802   48.7518 H       1  ZINC000859608860    0.0700
     36 H36        -1.8044    1.8138   51.1643 H       1  ZINC000859608860    0.4000
     37 H37        -4.1925    1.1515   51.8134 H       1  ZINC000859608860    0.1000
     38 H38        -4.3691    2.9171   51.6725 H       1  ZINC000859608860    0.1000
     39 H39        -7.9165   -1.6614   51.7311 H       1  ZINC000859608860    0.2000
     40 H40       -10.0159   -2.6243   51.8780 H       1  ZINC000859608860    0.1400
     41 H41       -11.6396   -4.1458   52.9294 H       1  ZINC000859608860    0.1500
     42 H42       -12.0795   -1.4330   56.1934 H       1  ZINC000859608860    0.1500
     43 H43       -10.4527    0.0915   55.1510 H       1  ZINC000859608860    0.1500
     44 H44        -9.8694    1.6451   53.5605 H       1  ZINC000859608860    0.2200
@<TRIPOS>BOND
     1     1     2    1
     2     1    25    1
     3     1    26    1
     4     1    27    1
     5     2     3    1
     6     2     4    1
     7     2     5    1
     8     3    28    1
     9     3    29    1
    10     3    30    1
    11     4    31    1
    12     4    32    1
    13     4    33    1
    14     5     6    1
    15     5    34    1
    16     5    35    1
    17     6     7   am
    18     6    36    1
    19     7     8    2
    20     7     9    1
    21     9    10    1
    22     9    37    1
    23     9    38    1
    24    10    11    1
    25    11    12    2
    26    11    13    1
    27    13    24    1
    28    13    14    2
    29    14    15    1
    30    14    39    1
    31    15    16    1
    32    15    23    1
    33    16    22   ar
    34    16    17   ar
    35    17    18   ar
    36    17    40    1
    37    18    19   ar
    38    18    41    1
    39    19    20    1
    40    19    21   ar
    41    21    22   ar
    42    21    42    1
    43    22    43    1
    44    23    24    2
    45    23    44    1
@<TRIPOS>SUBSTRUCTURE
     1 ZINC000859608860        1 TEMP              0 ****  ****    0 ROOT


##########                                Name:    ZINC000503413572
##########                DOCK_Rotatable_Bonds:                   7
##########                         Heavy_Atoms:                  26
##########                    Molecular_Weight:             355.375
##########                DOCK_Rotatable_Bonds:                   7
##########                       Formal_Charge:        -1.71363e-07
##########                     HBond_Acceptors:                   9
##########                        HBond_Donors:                   1
##########                         Heavy_Atoms:                  26
##########                          Grid_Score:          -39.178661
##########                     Grid_vdw_energy:          -35.993420
##########                      Grid_es_energy:           -3.185243
##########           Internal_energy_repulsive:            8.320854

@<TRIPOS>MOLECULE
ZINC000503413572
 44 47 1 0 0
SMALL
USER_CHARGES


@<TRIPOS>ATOM
      1 C1         -8.9574   -2.1849   59.4447 C.3     1  ZINC000503413572   -0.1200
      2 C2         -9.9686   -1.3243   60.1573 C.ar    1  ZINC000503413572   -0.0200
      3 C3         -9.8011   -1.0255   61.4950 C.ar    1  ZINC000503413572   -0.1400
      4 C4        -10.7301   -0.2342   62.1503 C.ar    1  ZINC000503413572    0.1300
      5 F5        -10.5644    0.0576   63.4590 F       1  ZINC000503413572   -0.1300
      6 C6        -11.8280    0.2588   61.4656 C.ar    1  ZINC000503413572   -0.1400
      7 C7        -11.9988   -0.0381   60.1274 C.ar    1  ZINC000503413572   -0.0700
      8 C8        -11.0662   -0.8267   59.4678 C.ar    1  ZINC000503413572    0.1000
      9 N9        -11.2377   -1.1287   58.1087 N.pl3   1  ZINC000503413572   -0.3100
     10 C10       -10.6360   -0.5173   57.0656 C.2     1  ZINC000503413572    0.1100
     11 C11       -11.0917   -1.1299   55.9326 C.2     1  ZINC000503413572   -0.1000
     12 C12       -10.7018   -0.7885   54.5515 C.2     1  ZINC000503413572    0.6100
     13 O13       -11.3705   -1.1831   53.6158 O.2     1  ZINC000503413572   -0.5300
     14 N14        -9.6042   -0.0392   54.3268 N.am    1  ZINC000503413572   -0.7200
     15 C15        -9.2179    0.3013   52.9552 C.3     1  ZINC000503413572    0.1100
     16 C16        -7.7556    0.7505   52.9339 C.3     1  ZINC000503413572    0.1000
     17 N17        -7.0577    0.0890   51.8285 N.pl3   1  ZINC000503413572   -0.4700
     18 C18        -7.2649   -1.1692   51.3704 C.2     1  ZINC000503413572    0.1500
     19 N19        -6.4375   -1.3627   50.3795 N.2     1  ZINC000503413572   -0.2900
     20 N20        -5.7301   -0.3050   50.1932 N.2     1  ZINC000503413572   -0.2900
     21 C21        -6.0781    0.6133   51.0531 C.2     1  ZINC000503413572    0.2100
     22 C22        -5.4916    1.9967   51.1686 C.3     1  ZINC000503413572   -0.1000
     23 C23        -4.9711    2.6525   49.8881 C.3     1  ZINC000503413572   -0.1500
     24 C24        -6.2686    3.1491   50.5289 C.3     1  ZINC000503413572   -0.1600
     25 N25       -11.9553   -2.0962   56.2890 N.2     1  ZINC000503413572   -0.2000
     26 N26       -12.0622   -2.1276   57.5716 N.2     1  ZINC000503413572   -0.0400
     27 H27        -8.2282   -1.5489   58.9430 H       1  ZINC000503413572    0.0900
     28 H28        -8.4477   -2.8213   60.1682 H       1  ZINC000503413572    0.0800
     29 H29        -9.4649   -2.8072   58.7076 H       1  ZINC000503413572    0.0700
     30 H30        -8.9456   -1.4094   62.0307 H       1  ZINC000503413572    0.1500
     31 H31       -12.5515    0.8754   61.9782 H       1  ZINC000503413572    0.1500
     32 H32       -12.8555    0.3462   59.5938 H       1  ZINC000503413572    0.1500
     33 H33        -9.9308    0.2990   57.1172 H       1  ZINC000503413572    0.2100
     34 H34        -9.0700    0.2745   55.0732 H       1  ZINC000503413572    0.4100
     35 H35        -9.3388   -0.5733   52.3160 H       1  ZINC000503413572    0.0800
     36 H36        -9.8516    1.1092   52.5892 H       1  ZINC000503413572    0.0800
     37 H37        -7.7093    1.8310   52.7981 H       1  ZINC000503413572    0.1100
     38 H38        -7.2792    0.4820   53.8768 H       1  ZINC000503413572    0.1100
     39 H39        -7.9812   -1.8804   51.7543 H       1  ZINC000503413572    0.2200
     40 H40        -4.9553    2.2041   52.0946 H       1  ZINC000503413572    0.1200
     41 H41        -4.0920    3.2915   49.9714 H       1  ZINC000503413572    0.1100
     42 H42        -5.0527    2.0833   48.9620 H       1  ZINC000503413572    0.1100
     43 H43        -7.2040    2.9066   50.0245 H       1  ZINC000503413572    0.1000
     44 H44        -6.2431    4.1147   51.0339 H       1  ZINC000503413572    0.1100
@<TRIPOS>BOND
     1     1     2    1
     2     1    27    1
     3     1    28    1
     4     1    29    1
     5     2     8   ar
     6     2     3   ar
     7     3     4   ar
     8     3    30    1
     9     4     5    1
    10     4     6   ar
    11     6     7   ar
    12     6    31    1
    13     7     8   ar
    14     7    32    1
    15     8     9    1
    16     9    26    1
    17     9    10    1
    18    10    11    2
    19    10    33    1
    20    11    12    1
    21    11    25    1
    22    12    13    2
    23    12    14   am
    24    14    15    1
    25    14    34    1
    26    15    16    1
    27    15    35    1
    28    15    36    1
    29    16    17    1
    30    16    37    1
    31    16    38    1
    32    17    21    1
    33    17    18    1
    34    18    19    2
    35    18    39    1
    36    19    20    1
    37    20    21    2
    38    21    22    1
    39    22    24    1
    40    22    23    1
    41    22    40    1
    42    23    24    1
    43    23    41    1
    44    23    42    1
    45    24    43    1
    46    24    44    1
    47    25    26    2
@<TRIPOS>SUBSTRUCTURE
     1 ZINC000503413572        1 TEMP              0 ****  ****    0 ROOT


##########                                Name:    ZINC000744839011
##########                DOCK_Rotatable_Bonds:                  10
##########                         Heavy_Atoms:                  24
##########                    Molecular_Weight:              378.83
##########                DOCK_Rotatable_Bonds:                  10
##########                       Formal_Charge:           0.0300002
##########                     HBond_Acceptors:                   9
##########                        HBond_Donors:                   0
##########                         Heavy_Atoms:                  24
##########                          Grid_Score:          -39.177624
##########                     Grid_vdw_energy:          -36.070374
##########                      Grid_es_energy:           -3.107250
##########           Internal_energy_repulsive:            8.511229

@<TRIPOS>MOLECULE
ZINC000744839011
 43 43 1 0 0
SMALL
USER_CHARGES


@<TRIPOS>ATOM
      1 C1        -10.1135   -2.1477   52.4219 C.3     1  ZINC000744839011    0.0400
      2 O2         -8.7833   -1.7027   52.0464 O.3     1  ZINC000744839011   -0.3600
      3 C3         -8.5207   -0.3869   52.1702 C.2     1  ZINC000744839011    0.5100
      4 O4         -9.2547    0.3194   52.8326 O.2     1  ZINC000744839011   -0.5000
      5 C5         -7.3426    0.1960   51.5016 C.ar    1  ZINC000744839011   -0.1600
      6 C6         -6.5000   -0.6137   50.7350 C.ar    1  ZINC000744839011   -0.0100
      7 C7         -5.4009   -0.0658   50.1117 C.ar    1  ZINC000744839011   -0.2100
      8 C8         -5.1287    1.2904   50.2437 C.ar    1  ZINC000744839011    0.1800
      9 O9         -4.0444    1.8262   49.6277 O.3     1  ZINC000744839011   -0.2900
     10 C10        -2.8877    2.0561   50.4345 C.3     1  ZINC000744839011    0.0500
     11 C11        -1.6280    1.8392   49.5935 C.3     1  ZINC000744839011    0.0600
     12 O12        -0.4575    1.8995   50.4505 O.3     1  ZINC000744839011   -0.3400
     13 C13         0.6960    1.4407   49.9399 C.2     1  ZINC000744839011    0.5000
     14 O14         1.3260    0.5974   50.5328 O.2     1  ZINC000744839011   -0.4900
     15 C15         1.2051    1.9775   48.6270 C.3     1  ZINC000744839011   -0.6400
     16 S16         1.9603    3.6055   48.8915 S.o2    1  ZINC000744839011    2.4400
     17 O17         1.1349    4.3491   49.7774 O.2     1  ZINC000744839011   -0.9100
     18 O18         3.3325    3.4214   49.2116 O.2     1  ZINC000744839011   -0.9100
     19 C19         1.8467    4.3442   47.2386 C.3     1  ZINC000744839011   -0.5700
     20 C20         2.4465    5.7516   47.2667 C.3     1  ZINC000744839011   -0.1500
     21 C21         2.6194    3.4804   46.2397 C.3     1  ZINC000744839011   -0.1500
     22 C22        -5.9649    2.1006   51.0053 C.ar    1  ZINC000744839011   -0.0800
     23 Cl23       -5.6199    3.7945   51.1660 Cl      1  ZINC000744839011   -0.0400
     24 C24        -7.0689    1.5613   51.6280 C.ar    1  ZINC000744839011   -0.0100
     25 H25       -10.2935   -1.9105   53.4704 H       1  ZINC000744839011    0.0700
     26 H26       -10.8542   -1.6417   51.8025 H       1  ZINC000744839011    0.0700
     27 H27       -10.1913   -3.2249   52.2745 H       1  ZINC000744839011    0.1100
     28 H28        -6.7102   -1.6681   50.6320 H       1  ZINC000744839011    0.1500
     29 H29        -4.7493   -0.6913   49.5196 H       1  ZINC000744839011    0.1500
     30 H30        -2.9031    3.0800   50.8083 H       1  ZINC000744839011    0.0900
     31 H31        -2.8872    1.3624   51.2752 H       1  ZINC000744839011    0.1000
     32 H32        -1.6762    0.8622   49.1125 H       1  ZINC000744839011    0.1100
     33 H33        -1.5613    2.6162   48.8320 H       1  ZINC000744839011    0.0900
     34 H34         1.9494    1.2937   48.2189 H       1  ZINC000744839011    0.1700
     35 H35         0.3753    2.0714   47.9265 H       1  ZINC000744839011    0.1700
     36 H36         0.8008    4.4010   46.9371 H       1  ZINC000744839011    0.1400
     37 H37         2.3782    6.1955   46.2736 H       1  ZINC000744839011    0.0900
     38 H38         1.8960    6.3669   47.9784 H       1  ZINC000744839011    0.0700
     39 H39         3.4924    5.6948   47.5683 H       1  ZINC000744839011    0.0800
     40 H40         2.1922    2.4779   46.2197 H       1  ZINC000744839011    0.0800
     41 H41         2.5512    3.9245   45.2465 H       1  ZINC000744839011    0.0900
     42 H42         3.6653    3.4238   46.5412 H       1  ZINC000744839011    0.0800
     43 H43        -7.7177    2.1905   52.2191 H       1  ZINC000744839011    0.1600
@<TRIPOS>BOND
     1     1     2    1
     2     1    25    1
     3     1    26    1
     4     1    27    1
     5     2     3    1
     6     3     4    2
     7     3     5    1
     8     5    24   ar
     9     5     6   ar
    10     6     7   ar
    11     6    28    1
    12     7     8   ar
    13     7    29    1
    14     8     9    1
    15     8    22   ar
    16     9    10    1
    17    10    11    1
    18    10    30    1
    19    10    31    1
    20    11    12    1
    21    11    32    1
    22    11    33    1
    23    12    13    1
    24    13    14    2
    25    13    15    1
    26    15    16    1
    27    15    34    1
    28    15    35    1
    29    16    17    2
    30    16    18    2
    31    16    19    1
    32    19    20    1
    33    19    21    1
    34    19    36    1
    35    20    37    1
    36    20    38    1
    37    20    39    1
    38    21    40    1
    39    21    41    1
    40    21    42    1
    41    22    23    1
    42    22    24   ar
    43    24    43    1
@<TRIPOS>SUBSTRUCTURE
     1 ZINC000744839011        1 TEMP              0 ****  ****    0 ROOT


##########                                Name:    ZINC000767361237
##########                DOCK_Rotatable_Bonds:                  10
##########                         Heavy_Atoms:                  30
##########                    Molecular_Weight:             409.439
##########                DOCK_Rotatable_Bonds:                  10
##########                       Formal_Charge:          -0.0300005
##########                     HBond_Acceptors:                   7
##########                        HBond_Donors:                   1
##########                         Heavy_Atoms:                  30
##########                          Grid_Score:          -39.153221
##########                     Grid_vdw_energy:          -39.170158
##########                      Grid_es_energy:            0.016936
##########           Internal_energy_repulsive:           26.101452

@<TRIPOS>MOLECULE
ZINC000767361237
 53 55 1 0 0
SMALL
USER_CHARGES


@<TRIPOS>ATOM
      1 C1          1.4184    6.7047   47.0721 C.3     1  ZINC000767361237   -0.1200
      2 C2          1.4428    5.5702   48.0638 C.ar    1  ZINC000767361237   -0.0900
      3 C3          2.0416    4.3706   47.7271 C.ar    1  ZINC000767361237   -0.1200
      4 C4          2.0640    3.3300   48.6367 C.ar    1  ZINC000767361237   -0.1100
      5 C5          1.4878    3.4890   49.8832 C.ar    1  ZINC000767361237   -0.0800
      6 C6          1.5117    2.3544   50.8746 C.3     1  ZINC000767361237   -0.0800
      7 H7          1.5287    2.7571   51.8873 H       1  ZINC000767361237    0.0900
      8 C8          2.7610    1.5018   50.6438 C.3     1  ZINC000767361237   -0.1500
      9 C9          0.2631    1.4897   50.6905 C.3     1  ZINC000767361237    0.1300
     10 H10         0.3125    0.6323   51.3618 H       1  ZINC000767361237    0.1400
     11 O11         0.1954    1.0325   49.3383 O.3     1  ZINC000767361237   -0.5200
     12 C12        -0.9640    2.3054   51.0070 C.2     1  ZINC000767361237    0.4300
     13 O13        -0.8852    3.2484   51.7583 O.2     1  ZINC000767361237   -0.5000
     14 O14        -2.1443    1.9843   50.4542 O.3     1  ZINC000767361237   -0.3300
     15 C15        -3.1109    3.0561   50.2951 C.3     1  ZINC000767361237    0.0100
     16 C16        -4.2819    2.5604   49.4863 C.2     1  ZINC000767361237    0.3700
     17 O17        -4.1750    2.4218   48.2914 O.2     1  ZINC000767361237   -0.4200
     18 C18        -5.5863    2.2378   50.1686 C.3     1  ZINC000767361237   -0.1800
     19 C19        -5.3420    1.2113   51.2766 C.3     1  ZINC000767361237    0.1200
     20 N20        -6.6235    0.8129   51.8643 N.am    1  ZINC000767361237   -0.5800
     21 C21        -7.2908   -0.3106   51.5448 C.2     1  ZINC000767361237    0.5700
     22 O22        -6.9320   -1.1426   50.7361 O.2     1  ZINC000767361237   -0.4600
     23 C23        -8.5335   -0.3635   52.3435 C.ar    1  ZINC000767361237   -0.1400
     24 C24        -9.5857   -1.2596   52.4375 C.ar    1  ZINC000767361237   -0.0400
     25 C25       -10.6300   -1.0041   53.3132 C.ar    1  ZINC000767361237   -0.0900
     26 C26       -10.6277    0.1375   54.0919 C.ar    1  ZINC000767361237   -0.0900
     27 C27        -9.5814    1.0433   54.0083 C.ar    1  ZINC000767361237   -0.0400
     28 C28        -8.5312    0.8012   53.1379 C.ar    1  ZINC000767361237   -0.1400
     29 C29        -7.2849    1.5196   52.7985 C.2     1  ZINC000767361237    0.5700
     30 O30        -6.9199    2.5727   53.2809 O.2     1  ZINC000767361237   -0.4600
     31 C31         0.8902    4.6890   50.2203 C.ar    1  ZINC000767361237   -0.1100
     32 C32         0.8712    5.7310   49.3121 C.ar    1  ZINC000767361237   -0.1200
     33 H33         2.3100    7.3185   47.2002 H       1  ZINC000767361237    0.0700
     34 H34         1.3971    6.3019   46.0595 H       1  ZINC000767361237    0.0700
     35 H35         0.5305    7.3145   47.2393 H       1  ZINC000767361237    0.0700
     36 H36         2.4918    4.2465   46.7533 H       1  ZINC000767361237    0.1200
     37 H37         2.5313    2.3926   48.3734 H       1  ZINC000767361237    0.1200
     38 H38         2.7784    0.6811   51.3609 H       1  ZINC000767361237    0.0800
     39 H39         2.7441    1.0991   49.6310 H       1  ZINC000767361237    0.0700
     40 H40         3.6507    2.1179   50.7750 H       1  ZINC000767361237    0.0600
     41 H41         0.1441    1.7435   48.6848 H       1  ZINC000767361237    0.3900
     42 H42        -3.4582    3.3807   51.2760 H       1  ZINC000767361237    0.1100
     43 H43        -2.6423    3.8944   49.7798 H       1  ZINC000767361237    0.1100
     44 H44        -6.0045    3.1467   50.6012 H       1  ZINC000767361237    0.1100
     45 H45        -6.2854    1.8269   49.4403 H       1  ZINC000767361237    0.1100
     46 H46        -4.8465    0.3355   50.8577 H       1  ZINC000767361237    0.1100
     47 H47        -4.7102    1.6522   52.0476 H       1  ZINC000767361237    0.1100
     48 H48        -9.5928   -2.1533   51.8312 H       1  ZINC000767361237    0.1400
     49 H49       -11.4508   -1.7020   53.3870 H       1  ZINC000767361237    0.1400
     50 H50       -11.4470    0.3257   54.7700 H       1  ZINC000767361237    0.1400
     51 H51        -9.5847    1.9337   54.6196 H       1  ZINC000767361237    0.1400
     52 H52         0.4403    4.8133   51.1943 H       1  ZINC000767361237    0.1200
     53 H53         0.4042    6.6685   49.5755 H       1  ZINC000767361237    0.1200
@<TRIPOS>BOND
     1     1     2    1
     2     1    33    1
     3     1    34    1
     4     1    35    1
     5     2    32   ar
     6     2     3   ar
     7     3     4   ar
     8     3    36    1
     9     4     5   ar
    10     4    37    1
    11     5     6    1
    12     5    31   ar
    13     6     7    1
    14     6     8    1
    15     6     9    1
    16     8    38    1
    17     8    39    1
    18     8    40    1
    19     9    10    1
    20     9    11    1
    21     9    12    1
    22    11    41    1
    23    12    13    2
    24    12    14    1
    25    14    15    1
    26    15    16    1
    27    15    42    1
    28    15    43    1
    29    16    17    2
    30    16    18    1
    31    18    19    1
    32    18    44    1
    33    18    45    1
    34    19    20    1
    35    19    46    1
    36    19    47    1
    37    20    29   am
    38    20    21   am
    39    21    22    2
    40    21    23    1
    41    23    28   ar
    42    23    24   ar
    43    24    25   ar
    44    24    48    1
    45    25    26   ar
    46    25    49    1
    47    26    27   ar
    48    26    50    1
    49    27    28   ar
    50    27    51    1
    51    28    29    1
    52    29    30    2
    53    31    32   ar
    54    31    52    1
    55    32    53    1
@<TRIPOS>SUBSTRUCTURE
     1 ZINC000767361237        1 TEMP              0 ****  ****    0 ROOT


##########                                Name:    ZINC000032503012
##########                DOCK_Rotatable_Bonds:                   8
##########                         Heavy_Atoms:                  27
##########                    Molecular_Weight:             390.503
##########                DOCK_Rotatable_Bonds:                   8
##########                       Formal_Charge:           0.0099995
##########                     HBond_Acceptors:                   7
##########                        HBond_Donors:                   2
##########                         Heavy_Atoms:                  27
##########                          Grid_Score:          -39.140430
##########                     Grid_vdw_energy:          -37.177521
##########                      Grid_es_energy:           -1.962911
##########           Internal_energy_repulsive:           44.074150

@<TRIPOS>MOLECULE
ZINC000032503012
 53 54 1 0 0
SMALL
USER_CHARGES


@<TRIPOS>ATOM
      1 C1         -2.6173    4.7584   51.2492 C.3     1  ZINC000032503012   -0.1200
      2 C2         -2.9426    3.3774   50.7413 C.ar    1  ZINC000032503012   -0.0500
      3 C3         -2.0900    2.7500   49.8521 C.ar    1  ZINC000032503012   -0.1600
      4 C4         -2.3856    1.4827   49.3842 C.ar    1  ZINC000032503012   -0.0700
      5 C5         -3.5341    0.8406   49.8044 C.ar    1  ZINC000032503012   -0.1500
      6 C6         -4.3913    1.4682   50.6968 C.ar    1  ZINC000032503012    0.1300
      7 O7         -5.5218    0.8383   51.1121 O.3     1  ZINC000032503012   -0.2800
      8 C8         -6.4716    1.6215   51.8376 C.3     1  ZINC000032503012    0.0700
      9 H9         -5.9533    2.2168   52.5894 H       1  ZINC000032503012    0.1100
     10 C10        -7.2105    2.5503   50.8721 C.3     1  ZINC000032503012   -0.1800
     11 C11        -7.4622    0.7095   52.5144 C.2     1  ZINC000032503012    0.5200
     12 O12        -7.3379   -0.4937   52.4255 O.2     1  ZINC000032503012   -0.4900
     13 N13        -8.4863    1.2309   53.2185 N.am    1  ZINC000032503012   -0.6700
     14 C14        -9.4062    0.3843   53.8470 C.ar    1  ZINC000032503012    0.1300
     15 C15        -9.6284    0.4904   55.2135 C.ar    1  ZINC000032503012   -0.0600
     16 C16       -10.5371   -0.3469   55.8310 C.ar    1  ZINC000032503012   -0.1200
     17 C17       -11.2246   -1.2902   55.0900 C.ar    1  ZINC000032503012   -0.0300
     18 C18       -11.0053   -1.3987   53.7288 C.ar    1  ZINC000032503012   -0.6600
     19 S19       -11.8840   -2.6025   52.7889 S.o2    1  ZINC000032503012    2.7000
     20 O20       -10.9034   -3.4451   52.1992 O.2     1  ZINC000032503012   -0.9600
     21 O21       -12.9221   -3.0879   53.6291 O.2     1  ZINC000032503012   -0.9500
     22 N22       -12.6261   -1.8046   51.5420 N.am    1  ZINC000032503012   -1.1100
     23 C23       -13.5987   -0.7462   51.8251 C.3     1  ZINC000032503012    0.1700
     24 C24       -12.8587    0.5413   52.1933 C.3     1  ZINC000032503012   -0.1900
     25 C25       -14.4619   -0.5019   50.5858 C.3     1  ZINC000032503012   -0.1500
     26 C26       -14.4913   -1.1730   52.9923 C.3     1  ZINC000032503012   -0.1800
     27 C27       -10.1030   -0.5602   53.1043 C.ar    1  ZINC000032503012   -0.0400
     28 C28        -4.0897    2.7370   51.1691 C.ar    1  ZINC000032503012   -0.2100
     29 H29        -2.0170    4.6802   52.1556 H       1  ZINC000032503012    0.0700
     30 H30        -2.0576    5.3028   50.4886 H       1  ZINC000032503012    0.0700
     31 H31        -3.5420    5.2911   51.4707 H       1  ZINC000032503012    0.0700
     32 H32        -1.1918    3.2506   49.5220 H       1  ZINC000032503012    0.1300
     33 H33        -1.7182    0.9948   48.6893 H       1  ZINC000032503012    0.1300
     34 H34        -3.7647   -0.1490   49.4384 H       1  ZINC000032503012    0.1300
     35 H35        -6.4940    3.2099   50.3826 H       1  ZINC000032503012    0.0800
     36 H36        -7.7288    1.9550   50.1204 H       1  ZINC000032503012    0.0800
     37 H37        -7.9350    3.1477   51.4255 H       1  ZINC000032503012    0.0800
     38 H38        -8.5858    2.1933   53.2896 H       1  ZINC000032503012    0.4100
     39 H39        -9.0911    1.2265   55.7930 H       1  ZINC000032503012    0.1400
     40 H40       -10.7104   -0.2649   56.8938 H       1  ZINC000032503012    0.1400
     41 H41       -11.9343   -1.9439   55.5753 H       1  ZINC000032503012    0.1500
     42 H42       -12.4168   -2.0380   50.6240 H       1  ZINC000032503012    0.4200
     43 H43       -12.0951    0.7484   51.4436 H       1  ZINC000032503012    0.0700
     44 H44       -13.5664    1.3694   52.2296 H       1  ZINC000032503012    0.0800
     45 H45       -12.3873    0.4231   53.1690 H       1  ZINC000032503012    0.0700
     46 H46       -14.9890   -1.4191   50.3235 H       1  ZINC000032503012    0.0700
     47 H47       -15.1855    0.2855   50.7966 H       1  ZINC000032503012    0.0700
     48 H48       -13.8259   -0.1978   49.7544 H       1  ZINC000032503012    0.0600
     49 H49       -13.9139   -1.1553   53.9167 H       1  ZINC000032503012    0.0900
     50 H50       -15.3329   -0.4853   53.0764 H       1  ZINC000032503012    0.0700
     51 H51       -14.8630   -2.1822   52.8153 H       1  ZINC000032503012    0.0600
     52 H52        -9.9321   -0.6454   52.0414 H       1  ZINC000032503012    0.1400
     53 H53        -4.7555    3.2276   51.8637 H       1  ZINC000032503012    0.1300
@<TRIPOS>BOND
     1     1     2    1
     2     1    29    1
     3     1    30    1
     4     1    31    1
     5     2    28   ar
     6     2     3   ar
     7     3     4   ar
     8     3    32    1
     9     4     5   ar
    10     4    33    1
    11     5     6   ar
    12     5    34    1
    13     6     7    1
    14     6    28   ar
    15     7     8    1
    16     8     9    1
    17     8    10    1
    18     8    11    1
    19    10    35    1
    20    10    36    1
    21    10    37    1
    22    11    12    2
    23    11    13   am
    24    13    14    1
    25    13    38    1
    26    14    27   ar
    27    14    15   ar
    28    15    16   ar
    29    15    39    1
    30    16    17   ar
    31    16    40    1
    32    17    18   ar
    33    17    41    1
    34    18    19    1
    35    18    27   ar
    36    19    20    2
    37    19    21    2
    38    19    22   am
    39    22    23    1
    40    22    42    1
    41    23    24    1
    42    23    25    1
    43    23    26    1
    44    24    43    1
    45    24    44    1
    46    24    45    1
    47    25    46    1
    48    25    47    1
    49    25    48    1
    50    26    49    1
    51    26    50    1
    52    26    51    1
    53    27    52    1
    54    28    53    1
@<TRIPOS>SUBSTRUCTURE
     1 ZINC000032503012        1 TEMP              0 ****  ****    0 ROOT


##########                                Name:    ZINC000494558165
##########                DOCK_Rotatable_Bonds:                  11
##########                         Heavy_Atoms:                  28
##########                    Molecular_Weight:             409.506
##########                DOCK_Rotatable_Bonds:                  11
##########                       Formal_Charge:        -6.55651e-07
##########                     HBond_Acceptors:                   9
##########                        HBond_Donors:                   3
##########                         Heavy_Atoms:                  28
##########                          Grid_Score:          -39.105484
##########                     Grid_vdw_energy:          -33.352882
##########                      Grid_es_energy:           -5.752602
##########           Internal_energy_repulsive:           32.809910

@<TRIPOS>MOLECULE
ZINC000494558165
 55 57 1 0 0
SMALL
USER_CHARGES


@<TRIPOS>ATOM
      1 O1        -11.3230   -0.1957   55.8942 O.2     1  ZINC000494558165   -0.4400
      2 C2        -10.4643   -0.0770   56.7417 C.2     1  ZINC000494558165    0.5100
      3 C3        -10.6738   -0.6632   58.1141 C.3     1  ZINC000494558165    0.0300
      4 N4        -11.7545   -1.6569   58.0623 N.3     1  ZINC000494558165   -0.5000
      5 C5        -11.3326   -2.8556   57.3253 C.3     1  ZINC000494558165    0.0500
      6 C6        -12.3822   -3.1989   56.2664 C.3     1  ZINC000494558165   -0.1100
      7 C7        -13.3952   -4.1840   56.8530 C.3     1  ZINC000494558165    0.0800
      8 O8        -12.7708   -5.4561   57.0373 O.3     1  ZINC000494558165   -0.5700
      9 C9        -12.2153   -2.0043   59.4132 C.3     1  ZINC000494558165    0.1200
     10 H10       -12.4023   -3.0759   59.4844 H       1  ZINC000494558165    0.1000
     11 C11       -13.4935   -1.2132   59.7631 C.3     1  ZINC000494558165   -0.1200
     12 C12       -12.9269    0.0356   60.4715 C.3     1  ZINC000494558165   -0.0900
     13 C13       -11.6002   -0.4058   61.0514 C.ar    1  ZINC000494558165   -0.0900
     14 C14       -10.8131    0.1723   62.0328 C.ar    1  ZINC000494558165   -0.1100
     15 C15        -9.6212   -0.4184   62.4057 C.ar    1  ZINC000494558165   -0.1100
     16 C16        -9.2125   -1.5904   61.7978 C.ar    1  ZINC000494558165   -0.1200
     17 C17        -9.9965   -2.1688   60.8184 C.ar    1  ZINC000494558165   -0.1000
     18 C18       -11.1900   -1.5805   60.4431 C.ar    1  ZINC000494558165   -0.1300
     19 N19        -9.3197    0.5743   56.4547 N.am    1  ZINC000494558165   -0.6900
     20 C20        -9.1323    1.0986   55.2272 C.2     1  ZINC000494558165    0.7000
     21 O21        -9.9947    0.9826   54.3787 O.2     1  ZINC000494558165   -0.5200
     22 N22        -7.9885    1.7513   54.9407 N.am    1  ZINC000494558165   -0.7300
     23 C23        -7.7855    2.3227   53.6071 C.3     1  ZINC000494558165    0.1700
     24 H24        -8.6110    2.9923   53.3658 H       1  ZINC000494558165    0.1200
     25 C25        -6.4598    3.1035   53.5751 C.3     1  ZINC000494558165   -0.1400
     26 C26        -6.1493    3.3893   52.0832 C.3     1  ZINC000494558165   -0.5800
     27 S27        -6.5673    1.7974   51.2767 S.o2    1  ZINC000494558165    2.4000
     28 O28        -7.2905    2.0513   50.0802 O.2     1  ZINC000494558165   -0.9300
     29 O29        -5.4135    0.9687   51.2440 O.2     1  ZINC000494558165   -0.9300
     30 C30        -7.7144    1.1904   52.5634 C.3     1  ZINC000494558165   -0.6200
     31 H31        -9.7542   -1.1436   58.4483 H       1  ZINC000494558165    0.0700
     32 H32       -10.9431    0.1305   58.8109 H       1  ZINC000494558165    0.1200
     33 H33       -10.3754   -2.6656   56.8400 H       1  ZINC000494558165    0.0900
     34 H34       -11.2292   -3.6905   58.0184 H       1  ZINC000494558165    0.0400
     35 H35       -12.8971   -2.2893   55.9569 H       1  ZINC000494558165    0.0700
     36 H36       -11.8933   -3.6511   55.4036 H       1  ZINC000494558165    0.0800
     37 H37       -13.7504   -3.8110   57.8137 H       1  ZINC000494558165    0.0500
     38 H38       -14.2380   -4.2885   56.1697 H       1  ZINC000494558165    0.0400
     39 H39       -13.1451   -5.9769   57.7610 H       1  ZINC000494558165    0.3800
     40 H40       -14.0355   -0.9335   58.8597 H       1  ZINC000494558165    0.0900
     41 H41       -14.1309   -1.7853   60.4373 H       1  ZINC000494558165    0.0800
     42 H42       -12.7764    0.8419   59.7538 H       1  ZINC000494558165    0.0800
     43 H43       -13.5992    0.3568   61.2670 H       1  ZINC000494558165    0.0800
     44 H44       -11.1317    1.0883   62.5081 H       1  ZINC000494558165    0.1200
     45 H45        -9.0098    0.0349   63.1719 H       1  ZINC000494558165    0.1300
     46 H46        -8.2808   -2.0533   62.0879 H       1  ZINC000494558165    0.1200
     47 H47        -9.6762   -3.0844   60.3435 H       1  ZINC000494558165    0.1200
     48 H48        -8.6309    0.6658   57.1315 H       1  ZINC000494558165    0.4100
     49 H49        -7.2997    1.8428   55.6176 H       1  ZINC000494558165    0.4000
     50 H50        -6.5656    4.0412   54.1208 H       1  ZINC000494558165    0.1100
     51 H51        -5.6626    2.5035   54.0141 H       1  ZINC000494558165    0.0900
     52 H52        -6.7806    4.1928   51.7037 H       1  ZINC000494558165    0.1400
     53 H53        -5.0944    3.6271   51.9462 H       1  ZINC000494558165    0.1400
     54 H54        -7.3257    0.2789   53.0175 H       1  ZINC000494558165    0.1500
     55 H55        -8.7011    1.0106   52.1365 H       1  ZINC000494558165    0.1500
@<TRIPOS>BOND
     1     1     2    2
     2     2     3    1
     3     2    19   am
     4     3     4    1
     5     3    31    1
     6     3    32    1
     7     4     5    1
     8     4     9    1
     9     5     6    1
    10     5    33    1
    11     5    34    1
    12     6     7    1
    13     6    35    1
    14     6    36    1
    15     7     8    1
    16     7    37    1
    17     7    38    1
    18     8    39    1
    19     9    10    1
    20     9    18    1
    21     9    11    1
    22    11    12    1
    23    11    40    1
    24    11    41    1
    25    12    13    1
    26    12    42    1
    27    12    43    1
    28    13    18   ar
    29    13    14   ar
    30    14    15   ar
    31    14    44    1
    32    15    16   ar
    33    15    45    1
    34    16    17   ar
    35    16    46    1
    36    17    18   ar
    37    17    47    1
    38    19    20   am
    39    19    48    1
    40    20    21    2
    41    20    22   am
    42    22    23    1
    43    22    49    1
    44    23    24    1
    45    23    30    1
    46    23    25    1
    47    25    26    1
    48    25    50    1
    49    25    51    1
    50    26    27    1
    51    26    52    1
    52    26    53    1
    53    27    28    2
    54    27    29    2
    55    27    30    1
    56    30    54    1
    57    30    55    1
@<TRIPOS>SUBSTRUCTURE
     1 ZINC000494558165        1 TEMP              0 ****  ****    0 ROOT


##########                                Name:    ZINC000375302598
##########                DOCK_Rotatable_Bonds:                   8
##########                         Heavy_Atoms:                  27
##########                    Molecular_Weight:             368.479
##########                DOCK_Rotatable_Bonds:                   8
##########                       Formal_Charge:               -0.02
##########                     HBond_Acceptors:                   6
##########                        HBond_Donors:                   1
##########                         Heavy_Atoms:                  27
##########                          Grid_Score:          -39.069347
##########                     Grid_vdw_energy:          -39.560421
##########                      Grid_es_energy:            0.491074
##########           Internal_energy_repulsive:           12.189328

@<TRIPOS>MOLECULE
ZINC000375302598
 55 58 1 0 0
SMALL
USER_CHARGES


@<TRIPOS>ATOM
      1 C1        -10.8876   -1.3593   53.5813 C.3     1  ZINC000375302598   -0.1500
      2 C2        -10.1678   -1.9426   52.3636 C.3     1  ZINC000375302598   -0.0300
      3 C3         -8.9182   -1.1462   52.0896 C.2     1  ZINC000375302598    0.1800
      4 N4         -8.7131    0.1134   52.3910 N.2     1  ZINC000375302598   -0.4700
      5 C5         -7.4695    0.3909   51.9602 C.2     1  ZINC000375302598    0.1800
      6 C6         -6.7613    1.7163   52.0736 C.3     1  ZINC000375302598    0.1500
      7 N7         -5.5135    1.6725   51.2995 N.3     1  ZINC000375302598   -0.5300
      8 C8         -5.7171    2.1964   49.9429 C.3     1  ZINC000375302598    0.0500
      9 C9         -4.4399    2.0017   49.1226 C.3     1  ZINC000375302598   -0.1100
     10 C10        -3.2834    2.7369   49.8055 C.3     1  ZINC000375302598   -0.1300
     11 C11        -3.1237    2.2065   51.2330 C.3     1  ZINC000375302598    0.1500
     12 H12        -2.8707    1.1467   51.2012 H       1  ZINC000375302598    0.1000
     13 N13        -2.0558    2.9441   51.9123 N.am    1  ZINC000375302598   -0.7300
     14 C14        -0.7655    2.6565   51.6496 C.2     1  ZINC000375302598    0.5200
     15 O15        -0.4886    1.7859   50.8519 O.2     1  ZINC000375302598   -0.5300
     16 C16         0.3330    3.4165   52.3470 C.3     1  ZINC000375302598   -0.1100
     17 C17        -0.1099    3.7618   53.7702 C.3     1  ZINC000375302598   -0.1200
     18 H18        -1.1716    3.9754   53.8934 H       1  ZINC000375302598    0.1200
     19 C19         0.8736    4.5398   54.6468 C.3     1  ZINC000375302598   -0.1700
     20 C20         0.6076    3.0580   54.9238 C.3     1  ZINC000375302598   -0.1100
     21 H21         1.3955    2.3491   54.6689 H       1  ZINC000375302598    0.1100
     22 C22        -0.2070    2.7133   56.1438 C.ar    1  ZINC000375302598   -0.0500
     23 C23         0.4210    2.5022   57.3572 C.ar    1  ZINC000375302598   -0.1200
     24 C24        -0.3262    2.1860   58.4763 C.ar    1  ZINC000375302598   -0.1200
     25 C25        -1.7014    2.0814   58.3824 C.ar    1  ZINC000375302598   -0.1300
     26 C26        -2.3294    2.2934   57.1693 C.ar    1  ZINC000375302598   -0.1200
     27 C27        -1.5826    2.6138   56.0510 C.ar    1  ZINC000375302598   -0.1100
     28 C28        -4.4390    2.3952   51.9922 C.3     1  ZINC000375302598    0.0500
     29 N29        -6.9907   -0.6939   51.4287 N.2     1  ZINC000375302598   -0.3800
     30 O30        -7.8051   -1.5903   51.4981 O.3     1  ZINC000375302598    0.0800
     31 H31       -11.1545   -0.3213   53.3828 H       1  ZINC000375302598    0.0600
     32 H32       -11.7913   -1.9355   53.7796 H       1  ZINC000375302598    0.0800
     33 H33       -10.2295   -1.4057   54.4490 H       1  ZINC000375302598    0.0600
     34 H34        -9.9007   -2.9806   52.5622 H       1  ZINC000375302598    0.1100
     35 H35       -10.8258   -1.8963   51.4959 H       1  ZINC000375302598    0.1000
     36 H36        -7.4034    2.5059   51.6833 H       1  ZINC000375302598    0.0700
     37 H37        -6.5329    1.9178   53.1201 H       1  ZINC000375302598    0.1100
     38 H38        -6.5395    1.6622   49.4670 H       1  ZINC000375302598    0.0800
     39 H39        -5.9564    3.2584   49.9958 H       1  ZINC000375302598    0.0400
     40 H40        -4.2077    0.9387   49.0576 H       1  ZINC000375302598    0.0700
     41 H41        -4.5862    2.4047   48.1203 H       1  ZINC000375302598    0.0700
     42 H42        -2.3626    2.5651   49.2479 H       1  ZINC000375302598    0.0700
     43 H43        -3.4981    3.8051   49.8357 H       1  ZINC000375302598    0.0600
     44 H44        -2.2772    3.6396   52.5511 H       1  ZINC000375302598    0.4000
     45 H45         1.2323    2.8016   52.3855 H       1  ZINC000375302598    0.1000
     46 H46         0.5440    4.3349   51.7993 H       1  ZINC000375302598    0.1000
     47 H47         1.8360    4.8056   54.2097 H       1  ZINC000375302598    0.1000
     48 H48         0.4588    5.2649   55.3471 H       1  ZINC000375302598    0.1000
     49 H49         1.4954    2.5840   57.4305 H       1  ZINC000375302598    0.1200
     50 H50         0.1645    2.0204   59.4241 H       1  ZINC000375302598    0.1200
     51 H51        -2.2851    1.8337   59.2567 H       1  ZINC000375302598    0.1200
     52 H52        -3.4037    2.2114   57.0959 H       1  ZINC000375302598    0.1200
     53 H53        -2.0733    2.7795   55.1033 H       1  ZINC000375302598    0.1200
     54 H54        -4.6843    3.4563   52.0355 H       1  ZINC000375302598    0.0400
     55 H55        -4.3332    2.0055   53.0046 H       1  ZINC000375302598    0.0900
@<TRIPOS>BOND
     1     1     2    1
     2     1    31    1
     3     1    32    1
     4     1    33    1
     5     2     3    1
     6     2    34    1
     7     2    35    1
     8     3    30    1
     9     3     4    2
    10     4     5    1
    11     5     6    1
    12     5    29    2
    13     6     7    1
    14     6    36    1
    15     6    37    1
    16     7    28    1
    17     7     8    1
    18     8     9    1
    19     8    38    1
    20     8    39    1
    21     9    10    1
    22     9    40    1
    23     9    41    1
    24    10    11    1
    25    10    42    1
    26    10    43    1
    27    11    12    1
    28    11    13    1
    29    11    28    1
    30    13    14   am
    31    13    44    1
    32    14    15    2
    33    14    16    1
    34    16    17    1
    35    16    45    1
    36    16    46    1
    37    17    18    1
    38    17    20    1
    39    17    19    1
    40    19    20    1
    41    19    47    1
    42    19    48    1
    43    20    21    1
    44    20    22    1
    45    22    27   ar
    46    22    23   ar
    47    23    24   ar
    48    23    49    1
    49    24    25   ar
    50    24    50    1
    51    25    26   ar
    52    25    51    1
    53    26    27   ar
    54    26    52    1
    55    27    53    1
    56    28    54    1
    57    28    55    1
    58    29    30    1
@<TRIPOS>SUBSTRUCTURE
     1 ZINC000375302598        1 TEMP              0 ****  ****    0 ROOT


##########                                Name:    ZINC000523153175
##########                DOCK_Rotatable_Bonds:                   9
##########                         Heavy_Atoms:                  30
##########                    Molecular_Weight:             413.603
##########                DOCK_Rotatable_Bonds:                   9
##########                       Formal_Charge:           0.0499987
##########                     HBond_Acceptors:                   5
##########                        HBond_Donors:                   1
##########                         Heavy_Atoms:                  30
##########                          Grid_Score:          -39.054012
##########                     Grid_vdw_energy:          -38.027542
##########                      Grid_es_energy:           -1.026472
##########           Internal_energy_repulsive:           34.396008

@<TRIPOS>MOLECULE
ZINC000523153175
 69 71 1 0 0
SMALL
USER_CHARGES


@<TRIPOS>ATOM
      1 C1        -11.7238   -1.4899   59.1203 C.3     1  ZINC000523153175   -0.1500
      2 C2        -10.4453   -0.8443   58.5821 C.3     1  ZINC000523153175   -0.0600
      3 C3         -9.2808   -1.8272   58.7195 C.3     1  ZINC000523153175   -0.1400
      4 C4        -10.6347   -0.4897   57.1297 C.ar    1  ZINC000523153175   -0.0800
      5 C5        -10.8803   -1.4844   56.2017 C.ar    1  ZINC000523153175   -0.1100
      6 C6        -11.0542   -1.1591   54.8695 C.ar    1  ZINC000523153175   -0.1100
      7 C7        -10.9827    0.1610   54.4653 C.ar    1  ZINC000523153175   -0.0800
      8 C8        -11.1716    0.5155   53.0128 C.3     1  ZINC000523153175   -0.0300
      9 H9        -11.1327   -0.3914   52.4094 H       1  ZINC000523153175    0.0800
     10 C10       -12.5299    1.1944   52.8261 C.3     1  ZINC000523153175   -0.1500
     11 C11       -10.0597    1.4695   52.5720 C.3     1  ZINC000523153175   -0.1300
     12 C12        -8.8089    0.6817   52.2790 C.2     1  ZINC000523153175    0.5200
     13 O13        -8.6794   -0.4387   52.7249 O.2     1  ZINC000523153175   -0.5300
     14 N14        -7.8340    1.2222   51.5214 N.am    1  ZINC000523153175   -0.6200
     15 C15        -7.9672    2.5823   50.9773 C.3     1  ZINC000523153175    0.1100
     16 C16        -6.7045    3.3744   51.3323 C.3     1  ZINC000523153175    0.0400
     17 N17        -5.5211    2.6349   50.8733 N.3     1  ZINC000523153175   -0.5100
     18 C18        -4.3018    3.4372   51.0396 C.3     1  ZINC000523153175    0.0600
     19 H19        -4.5288    4.4866   50.8514 H       1  ZINC000523153175    0.1100
     20 C20        -3.7767    3.2772   52.4677 C.3     1  ZINC000523153175   -0.1800
     21 C21        -3.2542    2.9670   50.0635 C.2     1  ZINC000523153175    0.5200
     22 O22        -3.5865    2.4086   49.0396 O.2     1  ZINC000523153175   -0.5200
     23 N23        -1.9479    3.1673   50.3286 N.am    1  ZINC000523153175   -0.7200
     24 C24        -0.9297    2.7117   49.3789 C.3     1  ZINC000523153175    0.1400
     25 C25         0.3424    3.5739   49.5141 C.3     1  ZINC000523153175   -0.1300
     26 C26         1.2537    2.7599   50.4658 C.3     1  ZINC000523153175   -0.1300
     27 C27         0.9919    1.2989   50.0231 C.3     1  ZINC000523153175   -0.1300
     28 C28        -0.5166    1.2652   49.7026 C.3     1  ZINC000523153175   -0.1300
     29 C29        -5.3994    1.3433   51.5624 C.3     1  ZINC000523153175    0.0400
     30 C30        -6.6060    0.4702   51.2219 C.3     1  ZINC000523153175    0.1200
     31 C31       -10.7384    1.1557   55.3935 C.ar    1  ZINC000523153175   -0.1100
     32 C32       -10.5685    0.8308   56.7264 C.ar    1  ZINC000523153175   -0.1200
     33 H33       -11.5868   -1.7465   60.1708 H       1  ZINC000523153175    0.0600
     34 H34       -12.5534   -0.7898   59.0224 H       1  ZINC000523153175    0.0600
     35 H35       -11.9420   -2.3936   58.5511 H       1  ZINC000523153175    0.0600
     36 H36       -10.2272    0.0593   59.1513 H       1  ZINC000523153175    0.0800
     37 H37        -9.4990   -2.7308   58.1503 H       1  ZINC000523153175    0.0600
     38 H38        -8.3701   -1.3673   58.3359 H       1  ZINC000523153175    0.0600
     39 H39        -9.1438   -2.0837   59.7700 H       1  ZINC000523153175    0.0600
     40 H40       -10.9362   -2.5157   56.5175 H       1  ZINC000523153175    0.1200
     41 H41       -11.2453   -1.9363   54.1443 H       1  ZINC000523153175    0.1200
     42 H42       -12.6666    1.4509   51.7755 H       1  ZINC000523153175    0.0800
     43 H43       -13.3221    0.5148   53.1402 H       1  ZINC000523153175    0.0600
     44 H44       -12.5687    2.1013   53.4296 H       1  ZINC000523153175    0.0500
     45 H45       -10.3725    2.0018   51.6737 H       1  ZINC000523153175    0.0900
     46 H46        -9.8593    2.1865   53.3681 H       1  ZINC000523153175    0.0900
     47 H47        -8.0767    2.5340   49.8938 H       1  ZINC000523153175    0.0800
     48 H48        -8.8393    3.0679   51.4150 H       1  ZINC000523153175    0.0900
     49 H49        -6.7368    4.3484   50.8440 H       1  ZINC000523153175    0.0900
     50 H50        -6.6520    3.5103   52.4125 H       1  ZINC000523153175    0.0400
     51 H51        -3.5496    2.2278   52.6558 H       1  ZINC000523153175    0.0700
     52 H52        -2.8720    3.8724   52.5910 H       1  ZINC000523153175    0.0700
     53 H53        -4.5344    3.6172   53.1737 H       1  ZINC000523153175    0.0700
     54 H54        -1.6822    3.6129   51.1481 H       1  ZINC000523153175    0.4000
     55 H55        -1.3155    2.7710   48.3612 H       1  ZINC000523153175    0.0900
     56 H56         0.8217    3.7016   48.5435 H       1  ZINC000523153175    0.0700
     57 H57         0.1018    4.5427   49.9521 H       1  ZINC000523153175    0.0700
     58 H58         2.3005    3.0261   50.3198 H       1  ZINC000523153175    0.0700
     59 H59         0.9576    2.9078   51.5044 H       1  ZINC000523153175    0.0700
     60 H60         1.5762    1.0591   49.1347 H       1  ZINC000523153175    0.0700
     61 H61         1.2255    0.6073   50.8326 H       1  ZINC000523153175    0.0700
     62 H62        -1.0738    0.9021   50.5662 H       1  ZINC000523153175    0.0700
     63 H63        -0.7012    0.6227   48.8416 H       1  ZINC000523153175    0.0800
     64 H64        -4.4853    0.8443   51.2409 H       1  ZINC000523153175    0.1000
     65 H65        -5.3651    1.5075   52.6394 H       1  ZINC000523153175    0.0400
     66 H66        -6.5784   -0.4415   51.8187 H       1  ZINC000523153175    0.1000
     67 H67        -6.5878    0.2177   50.1616 H       1  ZINC000523153175    0.0800
     68 H68       -10.6830    2.1870   55.0778 H       1  ZINC000523153175    0.1200
     69 H69       -10.3777    1.6080   57.4515 H       1  ZINC000523153175    0.1200
@<TRIPOS>BOND
     1     1     2    1
     2     1    33    1
     3     1    34    1
     4     1    35    1
     5     2     3    1
     6     2     4    1
     7     2    36    1
     8     3    37    1
     9     3    38    1
    10     3    39    1
    11     4    32   ar
    12     4     5   ar
    13     5     6   ar
    14     5    40    1
    15     6     7   ar
    16     6    41    1
    17     7     8    1
    18     7    31   ar
    19     8     9    1
    20     8    10    1
    21     8    11    1
    22    10    42    1
    23    10    43    1
    24    10    44    1
    25    11    12    1
    26    11    45    1
    27    11    46    1
    28    12    13    2
    29    12    14   am
    30    14    30    1
    31    14    15    1
    32    15    16    1
    33    15    47    1
    34    15    48    1
    35    16    17    1
    36    16    49    1
    37    16    50    1
    38    17    18    1
    39    17    29    1
    40    18    19    1
    41    18    20    1
    42    18    21    1
    43    20    51    1
    44    20    52    1
    45    20    53    1
    46    21    22    2
    47    21    23   am
    48    23    24    1
    49    23    54    1
    50    24    28    1
    51    24    25    1
    52    24    55    1
    53    25    26    1
    54    25    56    1
    55    25    57    1
    56    26    27    1
    57    26    58    1
    58    26    59    1
    59    27    28    1
    60    27    60    1
    61    27    61    1
    62    28    62    1
    63    28    63    1
    64    29    30    1
    65    29    64    1
    66    29    65    1
    67    30    66    1
    68    30    67    1
    69    31    32   ar
    70    31    68    1
    71    32    69    1
@<TRIPOS>SUBSTRUCTURE
     1 ZINC000523153175        1 TEMP              0 ****  ****    0 ROOT


##########                                Name:    ZINC000505965769
##########                DOCK_Rotatable_Bonds:                   9
##########                         Heavy_Atoms:                  29
##########                    Molecular_Weight:              419.88
##########                DOCK_Rotatable_Bonds:                   9
##########                       Formal_Charge:               -0.02
##########                     HBond_Acceptors:                   7
##########                        HBond_Donors:                   1
##########                         Heavy_Atoms:                  29
##########                          Grid_Score:          -39.047001
##########                     Grid_vdw_energy:          -34.029480
##########                      Grid_es_energy:           -5.017520
##########           Internal_energy_repulsive:            8.834679

@<TRIPOS>MOLECULE
ZINC000505965769
 52 54 1 0 0
SMALL
USER_CHARGES


@<TRIPOS>ATOM
      1 C1         -3.8976    2.1403   49.6125 C.3     1  ZINC000505965769    0.0200
      2 O2         -4.0049    2.2270   51.0349 O.3     1  ZINC000505965769   -0.3100
      3 C3         -5.2323    2.0180   51.5737 C.ar    1  ZINC000505965769    0.1800
      4 C4         -5.9052    3.0667   52.1919 C.ar    1  ZINC000505965769   -0.2200
      5 C5         -7.1413    2.8658   52.7367 C.ar    1  ZINC000505965769   -0.0200
      6 C6         -7.7370    1.5998   52.6748 C.ar    1  ZINC000505965769   -0.2100
      7 C7         -9.0655    1.3815   53.2591 C.2     1  ZINC000505965769    0.3900
      8 O8        -10.0609    1.6508   52.6201 O.2     1  ZINC000505965769   -0.4400
      9 C9         -9.1932    0.8227   54.6528 C.3     1  ZINC000505965769   -0.1500
     10 C10        -9.8601    1.8595   55.5589 C.3     1  ZINC000505965769   -0.1300
     11 C11       -10.6531    1.1551   56.6295 C.2     1  ZINC000505965769    0.5200
     12 O12       -11.8527    1.0242   56.5083 O.2     1  ZINC000505965769   -0.5300
     13 N13       -10.0291    0.6706   57.7215 N.am    1  ZINC000505965769   -0.7200
     14 C14       -10.8003   -0.0126   58.7629 C.3     1  ZINC000505965769    0.1900
     15 H15       -11.8478    0.2800   58.6904 H       1  ZINC000505965769    0.1100
     16 C16       -10.6814   -1.5036   58.5794 C.ar    1  ZINC000505965769   -0.1000
     17 C17        -9.5083   -2.1502   58.9212 C.ar    1  ZINC000505965769   -0.0900
     18 C18        -9.3981   -3.5175   58.7533 C.ar    1  ZINC000505965769   -0.1500
     19 C19       -10.4634   -4.2399   58.2432 C.ar    1  ZINC000505965769    0.1000
     20 F20       -10.3570   -5.5767   58.0790 F       1  ZINC000505965769   -0.1400
     21 C21       -11.6381   -3.5913   57.9016 C.ar    1  ZINC000505965769   -0.1500
     22 C22       -11.7477   -2.2246   58.0749 C.ar    1  ZINC000505965769   -0.0600
     23 C23       -10.2561    0.3769   60.1388 C.3     1  ZINC000505965769    0.0800
     24 H24        -9.1899    0.1587   60.1989 H       1  ZINC000505965769    0.0700
     25 C25       -10.5137    1.8800   60.4132 C.3     1  ZINC000505965769   -0.1500
     26 C26       -10.5125    1.9006   61.9662 C.3     1  ZINC000505965769   -0.1600
     27 C27       -11.1350    0.5309   62.3124 C.3     1  ZINC000505965769    0.0500
     28 O28       -10.9673   -0.3224   61.1725 O.3     1  ZINC000505965769   -0.3700
     29 C29        -7.0596    0.5419   52.0519 C.ar    1  ZINC000505965769    0.0500
     30 Cl30       -7.7884   -1.0315   51.9693 Cl      1  ZINC000505965769   -0.0200
     31 C31        -5.8150    0.7577   51.5010 C.ar    1  ZINC000505965769   -0.1600
     32 H32        -4.5494    2.8834   49.1530 H       1  ZINC000505965769    0.0600
     33 H33        -2.8661    2.3277   49.3139 H       1  ZINC000505965769    0.1100
     34 H34        -4.1952    1.1440   49.2857 H       1  ZINC000505965769    0.0600
     35 H35        -5.4482    4.0439   52.2414 H       1  ZINC000505965769    0.1400
     36 H36        -7.6594    3.6833   53.2159 H       1  ZINC000505965769    0.1500
     37 H37        -9.8007   -0.0819   54.6273 H       1  ZINC000505965769    0.1100
     38 H38        -8.2028    0.5844   55.0408 H       1  ZINC000505965769    0.1100
     39 H39        -9.0951    2.4818   56.0235 H       1  ZINC000505965769    0.1000
     40 H40       -10.5266    2.4855   54.9656 H       1  ZINC000505965769    0.1000
     41 H41        -9.0695    0.7743   57.8177 H       1  ZINC000505965769    0.4000
     42 H42        -8.6774   -1.5865   59.3191 H       1  ZINC000505965769    0.1300
     43 H43        -8.4813   -4.0224   59.0197 H       1  ZINC000505965769    0.1400
     44 H44       -12.4696   -4.1537   57.5032 H       1  ZINC000505965769    0.1400
     45 H45       -12.6639   -1.7185   57.8089 H       1  ZINC000505965769    0.1400
     46 H46        -9.7092    2.4962   60.0115 H       1  ZINC000505965769    0.0700
     47 H47       -11.4801    2.1917   60.0169 H       1  ZINC000505965769    0.1000
     48 H48        -9.4958    1.9735   62.3524 H       1  ZINC000505965769    0.0700
     49 H49       -11.1314    2.7145   62.3438 H       1  ZINC000505965769    0.0800
     50 H50       -10.6244    0.0999   63.1736 H       1  ZINC000505965769    0.0700
     51 H51       -12.1957    0.6518   62.5323 H       1  ZINC000505965769    0.0700
     52 H52        -5.2891   -0.0536   51.0198 H       1  ZINC000505965769    0.1500
@<TRIPOS>BOND
     1     1     2    1
     2     1    32    1
     3     1    33    1
     4     1    34    1
     5     2     3    1
     6     3    31   ar
     7     3     4   ar
     8     4     5   ar
     9     4    35    1
    10     5     6   ar
    11     5    36    1
    12     6     7    1
    13     6    29   ar
    14     7     8    2
    15     7     9    1
    16     9    10    1
    17     9    37    1
    18     9    38    1
    19    10    11    1
    20    10    39    1
    21    10    40    1
    22    11    12    2
    23    11    13   am
    24    13    14    1
    25    13    41    1
    26    14    15    1
    27    14    16    1
    28    14    23    1
    29    16    22   ar
    30    16    17   ar
    31    17    18   ar
    32    17    42    1
    33    18    19   ar
    34    18    43    1
    35    19    20    1
    36    19    21   ar
    37    21    22   ar
    38    21    44    1
    39    22    45    1
    40    23    24    1
    41    23    28    1
    42    23    25    1
    43    25    26    1
    44    25    46    1
    45    25    47    1
    46    26    27    1
    47    26    48    1
    48    26    49    1
    49    27    28    1
    50    27    50    1
    51    27    51    1
    52    29    30    1
    53    29    31   ar
    54    31    52    1
@<TRIPOS>SUBSTRUCTURE
     1 ZINC000505965769        1 TEMP              0 ****  ****    0 ROOT


##########                                Name:    ZINC001105194920
##########                DOCK_Rotatable_Bonds:                   8
##########                         Heavy_Atoms:                  25
##########                    Molecular_Weight:             346.392
##########                DOCK_Rotatable_Bonds:                   8
##########                       Formal_Charge:          -0.0100007
##########                     HBond_Acceptors:                  10
##########                        HBond_Donors:                   3
##########                         Heavy_Atoms:                  25
##########                          Grid_Score:          -38.963966
##########                     Grid_vdw_energy:          -38.230518
##########                      Grid_es_energy:           -0.733450
##########           Internal_energy_repulsive:            6.900116

@<TRIPOS>MOLECULE
ZINC001105194920
 47 49 1 0 0
SMALL
USER_CHARGES


@<TRIPOS>ATOM
      1 C1         -4.3579    0.6668   50.1746 C.3     1  ZINC001105194920    0.0300
      2 O2         -5.6614    1.0898   49.7694 O.3     1  ZINC001105194920   -0.3900
      3 C3         -5.9893    2.4229   50.1661 C.3     1  ZINC001105194920    0.0700
      4 C4         -6.3387    2.4403   51.6555 C.3     1  ZINC001105194920    0.0900
      5 H5         -5.6216    1.8296   52.2041 H       1  ZINC001105194920    0.0900
      6 C6         -6.2864    3.8785   52.1749 C.3     1  ZINC001105194920   -0.1800
      7 N7         -7.6909    1.8991   51.8478 N.3     1  ZINC001105194920   -0.6800
      8 C8         -7.6415    0.5626   52.4556 C.3     1  ZINC001105194920    0.1400
      9 C9         -9.0342   -0.0087   52.5262 C.2     1  ZINC001105194920   -0.0200
     10 C10        -9.3909   -1.2996   52.3298 C.2     1  ZINC001105194920   -0.0200
     11 N11       -10.7334   -1.3485   52.4920 N.pl3   1  ZINC001105194920   -0.2800
     12 C12       -11.5690   -2.5461   52.3747 C.3     1  ZINC001105194920    0.1000
     13 C13       -11.3235   -3.5844   53.4843 C.3     1  ZINC001105194920    0.1100
     14 N14       -12.3872   -2.8875   54.2332 N.am    1  ZINC001105194920   -0.6300
     15 C15       -12.6968   -2.7630   55.5390 C.2     1  ZINC001105194920    0.6200
     16 O16       -13.6618   -2.1041   55.8746 O.2     1  ZINC001105194920   -0.5400
     17 C17       -11.8635   -3.4269   56.5623 C.ar    1  ZINC001105194920   -0.0600
     18 N18       -10.8861   -2.7570   57.1658 N.ar    1  ZINC001105194920   -0.3700
     19 C19       -10.1447   -3.3522   58.0780 C.ar    1  ZINC001105194920   -0.0200
     20 C20       -10.3775   -4.6780   58.4146 C.ar    1  ZINC001105194920    0.1500
     21 N21       -11.3442   -5.3562   57.8235 N.ar    1  ZINC001105194920   -0.5100
     22 C22       -12.1034   -4.7674   56.9068 C.ar    1  ZINC001105194920    0.4200
     23 N23       -13.1170   -5.4738   56.2858 N.pl3   1  ZINC001105194920   -0.8100
     24 C24       -12.9758   -2.3817   52.9779 C.3     1  ZINC001105194920    0.1100
     25 N25       -11.1499   -0.1622   52.7675 N.2     1  ZINC001105194920   -0.0800
     26 N26       -10.1603    0.6589   52.8010 N.2     1  ZINC001105194920   -0.2600
     27 H27        -4.2847    0.7061   51.2614 H       1  ZINC001105194920    0.0400
     28 H28        -4.1857   -0.3547   49.8355 H       1  ZINC001105194920    0.0800
     29 H29        -3.6092    1.3263   49.7359 H       1  ZINC001105194920    0.0400
     30 H30        -5.1356    3.0761   49.9855 H       1  ZINC001105194920    0.0600
     31 H31        -6.8441    2.7740   49.5882 H       1  ZINC001105194920    0.0500
     32 H32        -7.0035    4.4891   51.6263 H       1  ZINC001105194920    0.0700
     33 H33        -6.5353    3.8909   53.2360 H       1  ZINC001105194920    0.0500
     34 H34        -5.2832    4.2800   52.0323 H       1  ZINC001105194920    0.0600
     35 H35        -8.2564    2.5267   52.3995 H       1  ZINC001105194920    0.3500
     36 H36        -7.0117   -0.0889   51.8498 H       1  ZINC001105194920    0.0900
     37 H37        -7.2274    0.6359   53.4611 H       1  ZINC001105194920    0.0500
     38 H38        -8.7358   -2.1244   52.0911 H       1  ZINC001105194920    0.1800
     39 H39       -11.5691   -2.9673   51.3693 H       1  ZINC001105194920    0.1500
     40 H40       -11.5834   -4.6035   53.1977 H       1  ZINC001105194920    0.1200
     41 H41       -10.3392   -3.5091   53.9465 H       1  ZINC001105194920    0.1000
     42 H42        -9.3515   -2.8054   58.5659 H       1  ZINC001105194920    0.1800
     43 H43        -9.7648   -5.1578   59.1635 H       1  ZINC001105194920    0.1800
     44 H44       -13.3257   -6.3763   56.5733 H       1  ZINC001105194920    0.4000
     45 H45       -13.6195   -5.0666   55.5628 H       1  ZINC001105194920    0.4300
     46 H46       -13.3107   -1.3460   53.0358 H       1  ZINC001105194920    0.1100
     47 H47       -13.7211   -3.0474   52.5426 H       1  ZINC001105194920    0.1200
@<TRIPOS>BOND
     1     1     2    1
     2     1    27    1
     3     1    28    1
     4     1    29    1
     5     2     3    1
     6     3     4    1
     7     3    30    1
     8     3    31    1
     9     4     5    1
    10     4     6    1
    11     4     7    1
    12     6    32    1
    13     6    33    1
    14     6    34    1
    15     7     8    1
    16     7    35    1
    17     8     9    1
    18     8    36    1
    19     8    37    1
    20     9    26    1
    21     9    10    2
    22    10    11    1
    23    10    38    1
    24    11    12    1
    25    11    25    1
    26    12    24    1
    27    12    13    1
    28    12    39    1
    29    13    14    1
    30    13    40    1
    31    13    41    1
    32    14    15   am
    33    14    24    1
    34    15    16    2
    35    15    17    1
    36    17    22   ar
    37    17    18   ar
    38    18    19   ar
    39    19    20   ar
    40    19    42    1
    41    20    21   ar
    42    20    43    1
    43    21    22   ar
    44    22    23    1
    45    23    44    1
    46    23    45    1
    47    24    46    1
    48    24    47    1
    49    25    26    2
@<TRIPOS>SUBSTRUCTURE
     1 ZINC001105194920        1 TEMP              0 ****  ****    0 ROOT


##########                                Name:    ZINC000185598309
##########                DOCK_Rotatable_Bonds:                  14
##########                         Heavy_Atoms:                  25
##########                    Molecular_Weight:             347.457
##########                DOCK_Rotatable_Bonds:                  14
##########                       Formal_Charge:               -0.02
##########                     HBond_Acceptors:                   6
##########                        HBond_Donors:                   4
##########                         Heavy_Atoms:                  25
##########                          Grid_Score:          -38.963058
##########                     Grid_vdw_energy:          -36.566639
##########                      Grid_es_energy:           -2.396419
##########           Internal_energy_repulsive:           17.275412

@<TRIPOS>MOLECULE
ZINC000185598309
 54 54 1 0 0
SMALL
USER_CHARGES


@<TRIPOS>ATOM
      1 C1          1.5518    1.2908   48.7175 C.3     1  ZINC000185598309   -0.1300
      2 C2          1.1246    1.3193   50.1624 C.2     1  ZINC000185598309   -0.1600
      3 C3         -0.1004    1.6610   50.4766 C.2     1  ZINC000185598309   -0.1600
      4 C4         -1.0830    2.0238   49.3932 C.3     1  ZINC000185598309   -0.0900
      5 C5         -2.1148    3.0074   49.9490 C.3     1  ZINC000185598309    0.1700
      6 H6         -2.6943    3.4289   49.1277 H       1  ZINC000185598309    0.1000
      7 C7         -1.3960    4.1324   50.6964 C.3     1  ZINC000185598309    0.0600
      8 O8         -2.3607    5.0353   51.2402 O.3     1  ZINC000185598309   -0.5700
      9 N9         -3.0122    2.3051   50.8698 N.am    1  ZINC000185598309   -0.7300
     10 C10        -4.0987    1.6645   50.3946 C.2     1  ZINC000185598309    0.7000
     11 O11        -4.3331    1.6682   49.2016 O.2     1  ZINC000185598309   -0.5900
     12 N12        -4.9250    1.0198   51.2418 N.am    1  ZINC000185598309   -0.7400
     13 C13        -6.1070    0.3250   50.7254 C.3     1  ZINC000185598309    0.1800
     14 C14        -7.3205    0.7433   51.5152 C.ar    1  ZINC000185598309   -0.0900
     15 C15        -7.7687    2.0496   51.4523 C.ar    1  ZINC000185598309   -0.1100
     16 C16        -8.8817    2.4376   52.1759 C.ar    1  ZINC000185598309   -0.1000
     17 C17        -9.5491    1.5204   52.9635 C.ar    1  ZINC000185598309   -0.1100
     18 C18        -9.1015    0.2072   53.0286 C.ar    1  ZINC000185598309    0.1400
     19 N19        -9.7758   -0.7247   53.8253 N.am    1  ZINC000185598309   -0.6800
     20 C20       -10.6135   -1.6153   53.2581 C.2     1  ZINC000185598309    0.5200
     21 O21       -10.7830   -1.6088   52.0572 O.2     1  ZINC000185598309   -0.5200
     22 C22       -11.3397   -2.6190   54.1162 C.3     1  ZINC000185598309   -0.1100
     23 H23       -10.6154   -3.2044   54.6826 H       1  ZINC000185598309    0.1000
     24 C24       -12.1633   -3.5507   53.2251 C.3     1  ZINC000185598309   -0.1500
     25 C25       -12.2700   -1.8845   55.0837 C.3     1  ZINC000185598309   -0.1100
     26 C26       -11.7141   -1.9906   56.5052 C.3     1  ZINC000185598309   -0.1600
     27 C27        -7.9869   -0.1803   52.2968 C.ar    1  ZINC000185598309   -0.1300
     28 H28         2.5963    0.9857   48.6534 H       1  ZINC000185598309    0.0600
     29 H29         0.9319    0.5815   48.1693 H       1  ZINC000185598309    0.0600
     30 H30         1.4364    2.2846   48.2849 H       1  ZINC000185598309    0.0600
     31 H31         1.8284    1.0581   50.9389 H       1  ZINC000185598309    0.1100
     32 H32        -0.4061    1.6828   51.5123 H       1  ZINC000185598309    0.1100
     33 H33        -0.5520    2.4859   48.5609 H       1  ZINC000185598309    0.0900
     34 H34        -1.5897    1.1233   49.0459 H       1  ZINC000185598309    0.0800
     35 H35        -0.7991    3.7086   51.5040 H       1  ZINC000185598309    0.0500
     36 H36        -0.7448    4.6688   50.0063 H       1  ZINC000185598309    0.0500
     37 H37        -3.0094    5.3523   50.5969 H       1  ZINC000185598309    0.3800
     38 H38        -2.8245    2.3011   51.8215 H       1  ZINC000185598309    0.4000
     39 H39        -4.7374    1.0159   52.1935 H       1  ZINC000185598309    0.4000
     40 H40        -6.2501    0.5823   49.6760 H       1  ZINC000185598309    0.0700
     41 H41        -5.9656   -0.7516   50.8196 H       1  ZINC000185598309    0.0800
     42 H42        -7.2486    2.7688   50.8370 H       1  ZINC000185598309    0.1300
     43 H43        -9.2290    3.4589   52.1253 H       1  ZINC000185598309    0.1300
     44 H44       -10.4179    1.8240   53.5287 H       1  ZINC000185598309    0.1300
     45 H45        -9.6403   -0.7299   54.7858 H       1  ZINC000185598309    0.4100
     46 H46       -11.5006   -4.0740   52.5358 H       1  ZINC000185598309    0.0600
     47 H47       -12.6886   -4.2767   53.8457 H       1  ZINC000185598309    0.0800
     48 H48       -12.8876   -2.9653   52.6587 H       1  ZINC000185598309    0.0600
     49 H49       -12.3369   -0.8349   54.7972 H       1  ZINC000185598309    0.0700
     50 H50       -13.2617   -2.3352   55.0468 H       1  ZINC000185598309    0.0700
     51 H51       -11.6472   -3.0401   56.7918 H       1  ZINC000185598309    0.0600
     52 H52       -10.7223   -1.5399   56.5422 H       1  ZINC000185598309    0.0600
     53 H53       -12.3769   -1.4674   57.1945 H       1  ZINC000185598309    0.0600
     54 H54        -7.6365   -1.2007   52.3452 H       1  ZINC000185598309    0.1300
@<TRIPOS>BOND
     1     1     2    1
     2     1    28    1
     3     1    29    1
     4     1    30    1
     5     2     3    2
     6     2    31    1
     7     3     4    1
     8     3    32    1
     9     4     5    1
    10     4    33    1
    11     4    34    1
    12     5     6    1
    13     5     7    1
    14     5     9    1
    15     7     8    1
    16     7    35    1
    17     7    36    1
    18     8    37    1
    19     9    10   am
    20     9    38    1
    21    10    11    2
    22    10    12   am
    23    12    13    1
    24    12    39    1
    25    13    14    1
    26    13    40    1
    27    13    41    1
    28    14    27   ar
    29    14    15   ar
    30    15    16   ar
    31    15    42    1
    32    16    17   ar
    33    16    43    1
    34    17    18   ar
    35    17    44    1
    36    18    19    1
    37    18    27   ar
    38    19    20   am
    39    19    45    1
    40    20    21    2
    41    20    22    1
    42    22    23    1
    43    22    24    1
    44    22    25    1
    45    24    46    1
    46    24    47    1
    47    24    48    1
    48    25    26    1
    49    25    49    1
    50    25    50    1
    51    26    51    1
    52    26    52    1
    53    26    53    1
    54    27    54    1
@<TRIPOS>SUBSTRUCTURE
     1 ZINC000185598309        1 TEMP              0 ****  ****    0 ROOT


##########                                Name:    ZINC000432058199
##########                DOCK_Rotatable_Bonds:                   5
##########                         Heavy_Atoms:                  30
##########                    Molecular_Weight:             406.441
##########                DOCK_Rotatable_Bonds:                   5
##########                       Formal_Charge:        -4.02331e-07
##########                     HBond_Acceptors:                   8
##########                        HBond_Donors:                   1
##########                         Heavy_Atoms:                  30
##########                          Grid_Score:          -38.944149
##########                     Grid_vdw_energy:          -38.326702
##########                      Grid_es_energy:           -0.617447
##########           Internal_energy_repulsive:           20.548058

@<TRIPOS>MOLECULE
ZINC000432058199
 52 55 1 0 0
SMALL
USER_CHARGES


@<TRIPOS>ATOM
      1 C1         -5.5760    1.1754   51.0023 C.3     1  ZINC000432058199    0.0300
      2 O2         -6.3952    0.0196   51.1899 O.3     1  ZINC000432058199   -0.3100
      3 C3         -7.5683    0.1958   51.8530 C.ar    1  ZINC000432058199    0.1300
      4 C4         -7.9221    1.4561   52.3144 C.ar    1  ZINC000432058199   -0.1900
      5 C5         -9.1145    1.6398   52.9894 C.ar    1  ZINC000432058199   -0.0800
      6 C6         -9.9597    0.5707   53.2083 C.ar    1  ZINC000432058199   -0.1100
      7 C7         -9.6121   -0.6979   52.7479 C.ar    1  ZINC000432058199    0.0100
      8 C8        -10.5195   -1.8491   52.9817 C.2     1  ZINC000432058199    0.2100
      9 N9        -10.2691   -3.1028   52.7081 N.2     1  ZINC000432058199   -0.3700
     10 O10       -11.2156   -3.7945   53.0195 O.3     1  ZINC000432058199    0.1200
     11 C11       -12.1875   -3.0352   53.5349 C.2     1  ZINC000432058199    0.1600
     12 C12       -13.5236   -3.5137   54.0418 C.3     1  ZINC000432058199    0.2500
     13 H13       -13.6713   -4.5537   53.7507 H       1  ZINC000432058199    0.1500
     14 C14       -14.6356   -2.6526   53.4395 C.3     1  ZINC000432058199   -0.1700
     15 N15       -13.5590   -3.4056   55.5024 N.am    1  ZINC000432058199   -0.5800
     16 C16       -13.6505   -4.4516   56.3315 C.2     1  ZINC000432058199    0.7000
     17 O17       -13.7147   -5.6063   55.9577 O.2     1  ZINC000432058199   -0.5100
     18 N18       -13.6635   -4.0826   57.6249 N.am    1  ZINC000432058199   -0.7200
     19 C19       -13.5688   -2.6126   57.6447 C.3     1  ZINC000432058199    0.1400
     20 H20       -14.4525   -2.1775   58.1113 H       1  ZINC000432058199    0.1400
     21 C21       -12.3199   -2.1713   58.3637 C.ar    1  ZINC000432058199   -0.1000
     22 C22       -11.3434   -3.0960   58.6837 C.ar    1  ZINC000432058199   -0.1000
     23 C23       -10.1979   -2.6913   59.3433 C.ar    1  ZINC000432058199   -0.0800
     24 C24        -9.1336   -3.6993   59.6925 C.3     1  ZINC000432058199   -0.1200
     25 C25       -10.0286   -1.3618   59.6819 C.ar    1  ZINC000432058199   -0.1100
     26 C26       -11.0050   -0.4372   59.3616 C.ar    1  ZINC000432058199   -0.0800
     27 C27       -10.8206    1.0122   59.7313 C.3     1  ZINC000432058199   -0.1200
     28 C28       -12.1485   -0.8411   58.6983 C.ar    1  ZINC000432058199   -0.1000
     29 C29       -13.4977   -2.2405   56.1769 C.2     1  ZINC000432058199    0.5300
     30 O30       -13.4097   -1.1262   55.7074 O.2     1  ZINC000432058199   -0.4500
     31 N31       -11.7576   -1.7980   53.5228 N.2     1  ZINC000432058199   -0.4500
     32 C32        -8.4136   -0.8815   52.0635 C.ar    1  ZINC000432058199   -0.1200
     33 H33        -4.6723    0.8963   50.4605 H       1  ZINC000432058199    0.1000
     34 H34        -6.1267    1.9221   50.4300 H       1  ZINC000432058199    0.0600
     35 H35        -5.3043    1.5896   51.9732 H       1  ZINC000432058199    0.0600
     36 H36        -7.2638    2.2956   52.1458 H       1  ZINC000432058199    0.1400
     37 H37        -9.3852    2.6224   53.3468 H       1  ZINC000432058199    0.1400
     38 H38       -10.8903    0.7173   53.7366 H       1  ZINC000432058199    0.1400
     39 H39       -14.4879   -1.6126   53.7306 H       1  ZINC000432058199    0.0900
     40 H40       -14.6093   -2.7330   52.3528 H       1  ZINC000432058199    0.0900
     41 H41       -15.6020   -2.9988   53.8062 H       1  ZINC000432058199    0.0900
     42 H42       -13.7241   -4.6697   58.3947 H       1  ZINC000432058199    0.4500
     43 H43       -11.4755   -4.1346   58.4186 H       1  ZINC000432058199    0.1200
     44 H44        -8.4177   -3.7703   58.8736 H       1  ZINC000432058199    0.0700
     45 H45        -8.6180   -3.3838   60.5995 H       1  ZINC000432058199    0.0700
     46 H46        -9.5952   -4.6729   59.8570 H       1  ZINC000432058199    0.0700
     47 H47        -9.1337   -1.0457   60.1973 H       1  ZINC000432058199    0.1300
     48 H48       -10.3169    1.5335   58.9173 H       1  ZINC000432058199    0.0700
     49 H49       -11.7944    1.4688   59.9078 H       1  ZINC000432058199    0.0700
     50 H50       -10.2170    1.0823   60.6363 H       1  ZINC000432058199    0.0700
     51 H51       -12.9113   -0.1188   58.4480 H       1  ZINC000432058199    0.1300
     52 H52        -8.1398   -1.8627   51.7048 H       1  ZINC000432058199    0.1400
@<TRIPOS>BOND
     1     1     2    1
     2     1    33    1
     3     1    34    1
     4     1    35    1
     5     2     3    1
     6     3    32   ar
     7     3     4   ar
     8     4     5   ar
     9     4    36    1
    10     5     6   ar
    11     5    37    1
    12     6     7   ar
    13     6    38    1
    14     7     8    1
    15     7    32   ar
    16     8    31    1
    17     8     9    2
    18     9    10    1
    19    10    11    1
    20    11    12    1
    21    11    31    2
    22    12    13    1
    23    12    14    1
    24    12    15    1
    25    14    39    1
    26    14    40    1
    27    14    41    1
    28    15    29   am
    29    15    16   am
    30    16    17    2
    31    16    18   am
    32    18    19    1
    33    18    42    1
    34    19    20    1
    35    19    21    1
    36    19    29    1
    37    21    28   ar
    38    21    22   ar
    39    22    23   ar
    40    22    43    1
    41    23    24    1
    42    23    25   ar
    43    24    44    1
    44    24    45    1
    45    24    46    1
    46    25    26   ar
    47    25    47    1
    48    26    27    1
    49    26    28   ar
    50    27    48    1
    51    27    49    1
    52    27    50    1
    53    28    51    1
    54    29    30    2
    55    32    52    1
@<TRIPOS>SUBSTRUCTURE
     1 ZINC000432058199        1 TEMP              0 ****  ****    0 ROOT


##########                                Name:    ZINC000642096826
##########                DOCK_Rotatable_Bonds:                  12
##########                         Heavy_Atoms:                  25
##########                    Molecular_Weight:             345.485
##########                DOCK_Rotatable_Bonds:                  12
##########                       Formal_Charge:          0.00999919
##########                     HBond_Acceptors:                   5
##########                        HBond_Donors:                   1
##########                         Heavy_Atoms:                  25
##########                          Grid_Score:          -38.944122
##########                     Grid_vdw_energy:          -37.989262
##########                      Grid_es_energy:           -0.954860
##########           Internal_energy_repulsive:           23.614700

@<TRIPOS>MOLECULE
ZINC000642096826
 56 57 1 0 0
SMALL
USER_CHARGES


@<TRIPOS>ATOM
      1 C1          3.9896    1.7162   51.8227 C.3     1  ZINC000642096826   -0.1500
      2 C2          2.6499    2.2381   51.2990 C.3     1  ZINC000642096826   -0.1400
      3 C3          2.2365    1.4339   50.0649 C.3     1  ZINC000642096826    0.1200
      4 N4          1.0420    2.0358   49.4675 N.am    1  ZINC000642096826   -0.6200
      5 C5          1.1641    2.8748   48.2727 C.3     1  ZINC000642096826    0.1100
      6 C6          2.4602    2.5292   47.5369 C.3     1  ZINC000642096826   -0.1400
      7 C7          2.4780    3.2315   46.1778 C.3     1  ZINC000642096826   -0.1500
      8 C8         -0.1692    1.8177   50.0168 C.2     1  ZINC000642096826    0.5200
      9 O9         -0.2700    1.1244   51.0068 O.2     1  ZINC000642096826   -0.5200
     10 C10        -1.3982    2.4355   49.4012 C.3     1  ZINC000642096826    0.0400
     11 N11        -2.5446    2.2447   50.2996 N.3     1  ZINC000642096826   -0.5200
     12 C12        -2.4454    3.1227   51.4732 C.3     1  ZINC000642096826    0.0100
     13 C13        -3.8121    2.4579   49.5883 C.3     1  ZINC000642096826    0.0900
     14 C14        -4.9065    1.6747   50.2664 C.ar    1  ZINC000642096826   -0.0500
     15 C15        -5.0093    0.3110   50.0561 C.ar    1  ZINC000642096826   -0.1000
     16 C16        -6.0091   -0.4118   50.6734 C.ar    1  ZINC000642096826   -0.0600
     17 C17        -6.9180    0.2356   51.5120 C.ar    1  ZINC000642096826   -0.1400
     18 C18        -7.9917   -0.5328   52.1772 C.2     1  ZINC000642096826    0.5600
     19 O19        -7.9028   -1.7411   52.2759 O.2     1  ZINC000642096826   -0.5300
     20 N20        -9.0691    0.1064   52.6742 N.am    1  ZINC000642096826   -0.7000
     21 C21       -10.1339   -0.6552   53.3319 C.3     1  ZINC000642096826    0.0800
     22 C22       -11.5704   -0.4069   52.8674 C.3     1  ZINC000642096826   -0.1900
     23 C23       -10.8627   -1.7129   52.5005 C.3     1  ZINC000642096826   -0.1900
     24 C24        -6.8084    1.6113   51.7202 C.ar    1  ZINC000642096826   -0.0900
     25 C25        -5.8007    2.3214   51.1009 C.ar    1  ZINC000642096826   -0.1200
     26 H26         3.8899    0.6645   52.0910 H       1  ZINC000642096826    0.0600
     27 H27         4.7489    1.8233   51.0482 H       1  ZINC000642096826    0.0600
     28 H28         4.2841    2.2892   52.7019 H       1  ZINC000642096826    0.0600
     29 H29         1.8906    2.1311   52.0737 H       1  ZINC000642096826    0.0600
     30 H30         2.7496    3.2899   51.0308 H       1  ZINC000642096826    0.0600
     31 H31         3.0489    1.4403   49.3382 H       1  ZINC000642096826    0.0800
     32 H32         2.0184    0.4066   50.3570 H       1  ZINC000642096826    0.0800
     33 H33         0.3138    2.6957   47.6145 H       1  ZINC000642096826    0.0800
     34 H34         1.1815    3.9245   48.5660 H       1  ZINC000642096826    0.0800
     35 H35         3.3134    2.8611   48.1285 H       1  ZINC000642096826    0.0700
     36 H36         2.5179    1.4508   47.3894 H       1  ZINC000642096826    0.0700
     37 H37         3.4014    2.9852   45.6536 H       1  ZINC000642096826    0.0600
     38 H38         1.6248    2.8996   45.5861 H       1  ZINC000642096826    0.0600
     39 H39         2.4204    4.3099   46.3253 H       1  ZINC000642096826    0.0600
     40 H40        -1.2307    3.5014   49.2471 H       1  ZINC000642096826    0.0600
     41 H41        -1.6038    1.9578   48.4433 H       1  ZINC000642096826    0.1000
     42 H42        -2.4254    4.1628   51.1482 H       1  ZINC000642096826    0.0200
     43 H43        -3.3065    2.9610   52.1216 H       1  ZINC000642096826    0.0700
     44 H44        -1.5307    2.8954   52.0208 H       1  ZINC000642096826    0.0900
     45 H45        -4.0624    3.5187   49.6020 H       1  ZINC000642096826    0.0500
     46 H46        -3.7106    2.1218   48.5564 H       1  ZINC000642096826    0.0900
     47 H47        -4.3054   -0.1886   49.4070 H       1  ZINC000642096826    0.1300
     48 H48        -6.0887   -1.4761   50.5079 H       1  ZINC000642096826    0.1400
     49 H49        -9.1395    1.0707   52.5965 H       1  ZINC000642096826    0.4000
     50 H50        -9.9760   -0.8672   54.3893 H       1  ZINC000642096826    0.1400
     51 H51       -12.3579   -0.4552   53.6194 H       1  ZINC000642096826    0.1000
     52 H52       -11.7233    0.3232   52.0725 H       1  ZINC000642096826    0.1000
     53 H53       -10.5501   -1.8420   51.4643 H       1  ZINC000642096826    0.1000
     54 H54       -11.1848   -2.6205   53.0112 H       1  ZINC000642096826    0.1100
     55 H55        -7.5087    2.1181   52.3677 H       1  ZINC000642096826    0.1200
     56 H56        -5.7146    3.3860   51.2614 H       1  ZINC000642096826    0.1300
@<TRIPOS>BOND
     1     1     2    1
     2     1    26    1
     3     1    27    1
     4     1    28    1
     5     2     3    1
     6     2    29    1
     7     2    30    1
     8     3     4    1
     9     3    31    1
    10     3    32    1
    11     4     5    1
    12     4     8   am
    13     5     6    1
    14     5    33    1
    15     5    34    1
    16     6     7    1
    17     6    35    1
    18     6    36    1
    19     7    37    1
    20     7    38    1
    21     7    39    1
    22     8     9    2
    23     8    10    1
    24    10    11    1
    25    10    40    1
    26    10    41    1
    27    11    12    1
    28    11    13    1
    29    12    42    1
    30    12    43    1
    31    12    44    1
    32    13    14    1
    33    13    45    1
    34    13    46    1
    35    14    25   ar
    36    14    15   ar
    37    15    16   ar
    38    15    47    1
    39    16    17   ar
    40    16    48    1
    41    17    18    1
    42    17    24   ar
    43    18    19    2
    44    18    20   am
    45    20    21    1
    46    20    49    1
    47    21    23    1
    48    21    22    1
    49    21    50    1
    50    22    23    1
    51    22    51    1
    52    22    52    1
    53    23    53    1
    54    23    54    1
    55    24    25   ar
    56    24    55    1
    57    25    56    1
@<TRIPOS>SUBSTRUCTURE
     1 ZINC000642096826        1 TEMP              0 ****  ****    0 ROOT


##########                                Name:    ZINC000410354665
##########                DOCK_Rotatable_Bonds:                   7
##########                         Heavy_Atoms:                  29
##########                    Molecular_Weight:             417.889
##########                DOCK_Rotatable_Bonds:                   7
##########                       Formal_Charge:        -3.72529e-08
##########                     HBond_Acceptors:                   7
##########                        HBond_Donors:                   1
##########                         Heavy_Atoms:                  29
##########                          Grid_Score:          -38.937569
##########                     Grid_vdw_energy:          -39.166569
##########                      Grid_es_energy:            0.229001
##########           Internal_energy_repulsive:           12.694845

@<TRIPOS>MOLECULE
ZINC000410354665
 53 56 1 0 0
SMALL
USER_CHARGES


@<TRIPOS>ATOM
      1 C1         -7.2483   -1.1651   52.0711 C.3     1  ZINC000410354665    0.0200
      2 O2         -6.8732    0.1236   51.5807 O.3     1  ZINC000410354665   -0.3000
      3 C3         -7.2374    1.1991   52.3292 C.ar    1  ZINC000410354665    0.0900
      4 C4         -8.0092    1.0232   53.4610 C.ar    1  ZINC000410354665   -0.1100
      5 C5         -8.3813    2.1307   54.2282 C.ar    1  ZINC000410354665   -0.1400
      6 C6         -9.2056    1.9484   55.4390 C.2     1  ZINC000410354665    0.5700
      7 O7         -9.5215    2.9117   56.1102 O.2     1  ZINC000410354665   -0.5300
      8 N8         -9.6080    0.7140   55.8005 N.am    1  ZINC000410354665   -0.7200
      9 C9        -10.4276    0.5332   57.0013 C.3     1  ZINC000410354665    0.1700
     10 C10       -10.9262   -0.8878   57.0599 C.ar    1  ZINC000410354665   -0.1000
     11 C11       -10.2692   -1.8176   57.8436 C.ar    1  ZINC000410354665   -0.0900
     12 C12       -10.7226   -3.1233   57.8980 C.ar    1  ZINC000410354665   -0.0300
     13 Cl13       -9.8946   -4.2887   58.8830 Cl      1  ZINC000410354665   -0.0400
     14 C14       -11.8391   -3.5022   57.1663 C.ar    1  ZINC000410354665    0.0700
     15 O15       -12.2694   -4.7925   57.2236 O.3     1  ZINC000410354665   -0.2900
     16 C16       -13.6044   -5.0462   56.7725 C.3     1  ZINC000410354665    0.0200
     17 C17       -13.8087   -4.3141   55.4394 C.3     1  ZINC000410354665    0.0200
     18 O18       -13.6014   -2.9147   55.6601 O.3     1  ZINC000410354665   -0.3000
     19 C19       -12.5013   -2.5658   56.3818 C.ar    1  ZINC000410354665    0.0600
     20 C20       -12.0432   -1.2575   56.3344 C.ar    1  ZINC000410354665   -0.0900
     21 C21        -7.9711    3.4102   53.8470 C.ar    1  ZINC000410354665   -0.0800
     22 C22        -7.2014    3.5789   52.7161 C.ar    1  ZINC000410354665   -0.1900
     23 C23        -6.8269    2.4787   51.9572 C.ar    1  ZINC000410354665    0.1400
     24 O24        -6.0685    2.6501   50.8440 O.3     1  ZINC000410354665   -0.2900
     25 C25        -4.7531    2.0920   50.8629 C.3     1  ZINC000410354665    0.0700
     26 C26        -4.0406    2.3375   49.5097 C.3     1  ZINC000410354665   -0.1500
     27 C27        -2.5421    2.2500   49.8916 C.3     1  ZINC000410354665   -0.1200
     28 C28        -2.4644    2.9256   51.2762 C.3     1  ZINC000410354665   -0.1200
     29 C29        -3.8703    2.8251   51.8938 C.3     1  ZINC000410354665   -0.1200
     30 H30        -6.8000   -1.3254   53.0516 H       1  ZINC000410354665    0.0600
     31 H31        -8.3336   -1.2204   52.1544 H       1  ZINC000410354665    0.0600
     32 H32        -6.8972   -1.9326   51.3813 H       1  ZINC000410354665    0.1000
     33 H33        -8.3247    0.0323   53.7523 H       1  ZINC000410354665    0.1500
     34 H34        -9.3550   -0.0547   55.2658 H       1  ZINC000410354665    0.4000
     35 H35        -9.8273    0.7443   57.8862 H       1  ZINC000410354665    0.0800
     36 H36       -11.2772    1.2152   56.9674 H       1  ZINC000410354665    0.0900
     37 H37        -9.4002   -1.5243   58.4138 H       1  ZINC000410354665    0.1500
     38 H38       -13.7465   -6.1174   56.6292 H       1  ZINC000410354665    0.1300
     39 H39       -14.3177   -4.6755   57.5086 H       1  ZINC000410354665    0.0800
     40 H40       -13.0914   -4.6805   54.7050 H       1  ZINC000410354665    0.0800
     41 H41       -14.8233   -4.4830   55.0790 H       1  ZINC000410354665    0.1300
     42 H42       -12.5575   -0.5276   55.7269 H       1  ZINC000410354665    0.1400
     43 H43        -8.2574    4.2675   54.4382 H       1  ZINC000410354665    0.1300
     44 H44        -6.8852    4.5689   52.4223 H       1  ZINC000410354665    0.1400
     45 H45        -4.7952    1.0259   51.0862 H       1  ZINC000410354665    0.0800
     46 H46        -4.3017    1.5622   48.7894 H       1  ZINC000410354665    0.0700
     47 H47        -4.2827    3.3261   49.1195 H       1  ZINC000410354665    0.0800
     48 H48        -2.2252    1.2091   49.9566 H       1  ZINC000410354665    0.0700
     49 H49        -1.9319    2.7910   49.1684 H       1  ZINC000410354665    0.0700
     50 H50        -1.7421    2.4055   51.9055 H       1  ZINC000410354665    0.0700
     51 H51        -2.1791    3.9718   51.1658 H       1  ZINC000410354665    0.0700
     52 H52        -4.2671    3.8226   52.0831 H       1  ZINC000410354665    0.0800
     53 H53        -3.8302    2.2564   52.8228 H       1  ZINC000410354665    0.0700
@<TRIPOS>BOND
     1     1     2    1
     2     1    30    1
     3     1    31    1
     4     1    32    1
     5     2     3    1
     6     3    23   ar
     7     3     4   ar
     8     4     5   ar
     9     4    33    1
    10     5     6    1
    11     5    21   ar
    12     6     7    2
    13     6     8   am
    14     8     9    1
    15     8    34    1
    16     9    10    1
    17     9    35    1
    18     9    36    1
    19    10    20   ar
    20    10    11   ar
    21    11    12   ar
    22    11    37    1
    23    12    13    1
    24    12    14   ar
    25    14    19   ar
    26    14    15    1
    27    15    16    1
    28    16    17    1
    29    16    38    1
    30    16    39    1
    31    17    18    1
    32    17    40    1
    33    17    41    1
    34    18    19    1
    35    19    20   ar
    36    20    42    1
    37    21    22   ar
    38    21    43    1
    39    22    23   ar
    40    22    44    1
    41    23    24    1
    42    24    25    1
    43    25    29    1
    44    25    26    1
    45    25    45    1
    46    26    27    1
    47    26    46    1
    48    26    47    1
    49    27    28    1
    50    27    48    1
    51    27    49    1
    52    28    29    1
    53    28    50    1
    54    28    51    1
    55    29    52    1
    56    29    53    1
@<TRIPOS>SUBSTRUCTURE
     1 ZINC000410354665        1 TEMP              0 ****  ****    0 ROOT


##########                                Name:    ZINC000124554441
##########                DOCK_Rotatable_Bonds:                   9
##########                         Heavy_Atoms:                  26
##########                    Molecular_Weight:             375.898
##########                DOCK_Rotatable_Bonds:                   9
##########                       Formal_Charge:         -0.00999991
##########                     HBond_Acceptors:                   6
##########                        HBond_Donors:                   1
##########                         Heavy_Atoms:                  26
##########                          Grid_Score:          -38.916725
##########                     Grid_vdw_energy:          -38.194141
##########                      Grid_es_energy:           -0.722585
##########           Internal_energy_repulsive:           13.805683

@<TRIPOS>MOLECULE
ZINC000124554441
 52 53 1 0 0
SMALL
USER_CHARGES


@<TRIPOS>ATOM
      1 C1         -2.7673    1.3368   49.6880 C.3     1  ZINC000124554441   -0.1500
      2 C2         -3.7669    2.4180   49.2727 C.3     1  ZINC000124554441   -0.1300
      3 C3         -4.7878    2.6263   50.3931 C.3     1  ZINC000124554441   -0.1200
      4 C4         -5.4882    1.3006   50.6977 C.3     1  ZINC000124554441   -0.1200
      5 C5         -6.6457    1.5464   51.6676 C.3     1  ZINC000124554441   -0.1300
      6 C6         -7.3675    0.2262   51.9453 C.3     1  ZINC000124554441    0.1200
      7 N7         -8.6625    0.5004   52.5729 N.am    1  ZINC000124554441   -0.7300
      8 C8         -9.6202   -0.4480   52.5842 C.2     1  ZINC000124554441    0.5200
      9 O9         -9.4103   -1.5278   52.0735 O.2     1  ZINC000124554441   -0.5300
     10 C10       -10.9518   -0.1666   53.2314 C.3     1  ZINC000124554441   -0.1200
     11 H11       -10.8398    0.6366   53.9597 H       1  ZINC000124554441    0.1000
     12 C12       -11.9618    0.2521   52.1606 C.3     1  ZINC000124554441   -0.1000
     13 C13       -13.3054    0.5698   52.8207 C.3     1  ZINC000124554441   -0.1400
     14 C14       -13.8354   -0.6856   53.5207 C.3     1  ZINC000124554441    0.0900
     15 N15       -12.8086   -1.1785   54.4490 N.am    1  ZINC000124554441   -0.6000
     16 C16       -13.1029   -1.3959   55.7460 C.2     1  ZINC000124554441    0.5600
     17 O17       -14.2265   -1.1841   56.1581 O.2     1  ZINC000124554441   -0.5200
     18 C18       -12.0583   -1.8923   56.6683 C.ar    1  ZINC000124554441   -0.0900
     19 C19       -11.2901   -0.9879   57.4042 C.ar    1  ZINC000124554441   -0.0900
     20 C20       -10.3172   -1.4488   58.2632 C.ar    1  ZINC000124554441   -0.0600
     21 C21       -10.0980   -2.8215   58.3984 C.ar    1  ZINC000124554441    0.0100
     22 C22        -9.0865   -3.3009   59.2915 C.1     1  ZINC000124554441    0.2400
     23 N23        -8.2840   -3.6811   60.0000 N.1     1  ZINC000124554441   -0.3800
     24 C24       -10.8670   -3.7275   57.6616 C.ar    1  ZINC000124554441    0.0000
     25 Cl25      -10.5960   -5.4340   57.8291 Cl      1  ZINC000124554441   -0.0400
     26 C26       -11.8447   -3.2649   56.8067 C.ar    1  ZINC000124554441   -0.0600
     27 C27       -11.4546   -1.4301   53.9368 C.3     1  ZINC000124554441    0.1200
     28 H28        -2.2514    1.6484   50.5962 H       1  ZINC000124554441    0.0500
     29 H29        -3.2982    0.4032   49.8739 H       1  ZINC000124554441    0.0500
     30 H30        -2.0400    1.1884   48.8898 H       1  ZINC000124554441    0.0500
     31 H31        -3.2360    3.3517   49.0868 H       1  ZINC000124554441    0.0600
     32 H32        -4.2828    2.1063   48.3644 H       1  ZINC000124554441    0.0600
     33 H33        -4.2774    2.9816   51.2882 H       1  ZINC000124554441    0.0600
     34 H34        -5.5265    3.3637   50.0791 H       1  ZINC000124554441    0.0600
     35 H35        -5.8742    0.8726   49.7725 H       1  ZINC000124554441    0.0700
     36 H36        -4.7768    0.6089   51.1488 H       1  ZINC000124554441    0.0700
     37 H37        -6.2570    1.9513   52.6020 H       1  ZINC000124554441    0.0700
     38 H38        -7.3447    2.2569   51.2266 H       1  ZINC000124554441    0.0700
     39 H39        -7.5238   -0.3067   51.0073 H       1  ZINC000124554441    0.0700
     40 H40        -6.7619   -0.3854   52.6140 H       1  ZINC000124554441    0.0700
     41 H41        -8.8309    1.3644   52.9803 H       1  ZINC000124554441    0.4000
     42 H42       -11.5943    1.1369   51.6408 H       1  ZINC000124554441    0.0800
     43 H43       -12.0915   -0.5608   51.4460 H       1  ZINC000124554441    0.0800
     44 H44       -13.1717    1.3658   53.5532 H       1  ZINC000124554441    0.0700
     45 H45       -14.0176    0.8903   52.0603 H       1  ZINC000124554441    0.0900
     46 H46       -14.7413   -0.4400   54.0750 H       1  ZINC000124554441    0.1000
     47 H47       -14.0553   -1.4527   52.7783 H       1  ZINC000124554441    0.0800
     48 H48       -11.4587    0.0737   57.2995 H       1  ZINC000124554441    0.1500
     49 H49        -9.7235   -0.7487   58.8321 H       1  ZINC000124554441    0.1500
     50 H50       -12.4391   -3.9640   56.2373 H       1  ZINC000124554441    0.1500
     51 H51       -11.4799   -2.2578   53.2281 H       1  ZINC000124554441    0.0800
     52 H52       -10.7903   -1.6759   54.7653 H       1  ZINC000124554441    0.1000
@<TRIPOS>BOND
     1     1     2    1
     2     1    28    1
     3     1    29    1
     4     1    30    1
     5     2     3    1
     6     2    31    1
     7     2    32    1
     8     3     4    1
     9     3    33    1
    10     3    34    1
    11     4     5    1
    12     4    35    1
    13     4    36    1
    14     5     6    1
    15     5    37    1
    16     5    38    1
    17     6     7    1
    18     6    39    1
    19     6    40    1
    20     7     8   am
    21     7    41    1
    22     8     9    2
    23     8    10    1
    24    10    11    1
    25    10    27    1
    26    10    12    1
    27    12    13    1
    28    12    42    1
    29    12    43    1
    30    13    14    1
    31    13    44    1
    32    13    45    1
    33    14    15    1
    34    14    46    1
    35    14    47    1
    36    15    16   am
    37    15    27    1
    38    16    17    2
    39    16    18    1
    40    18    26   ar
    41    18    19   ar
    42    19    20   ar
    43    19    48    1
    44    20    21   ar
    45    20    49    1
    46    21    22    1
    47    21    24   ar
    48    22    23    3
    49    24    25    1
    50    24    26   ar
    51    26    50    1
    52    27    51    1
    53    27    52    1
@<TRIPOS>SUBSTRUCTURE
     1 ZINC000124554441        1 TEMP              0 ****  ****    0 ROOT


##########                                Name:    ZINC000583220082
##########                DOCK_Rotatable_Bonds:                   9
##########                         Heavy_Atoms:                  29
##########                    Molecular_Weight:             417.492
##########                DOCK_Rotatable_Bonds:                   9
##########                       Formal_Charge:          -0.0400006
##########                     HBond_Acceptors:                  11
##########                        HBond_Donors:                   3
##########                         Heavy_Atoms:                  29
##########                          Grid_Score:          -38.895615
##########                     Grid_vdw_energy:          -35.745655
##########                      Grid_es_energy:           -3.149961
##########           Internal_energy_repulsive:           18.768871

@<TRIPOS>MOLECULE
ZINC000583220082
 52 54 1 0 0
SMALL
USER_CHARGES


@<TRIPOS>ATOM
      1 C1        -13.6520   -3.1790   55.4277 C.3     1  ZINC000583220082    0.0800
      2 N2        -13.1600   -2.7284   54.1234 N.am    1  ZINC000583220082   -0.6300
      3 C3        -14.1064   -2.2872   53.0959 C.3     1  ZINC000583220082    0.0800
      4 C4        -11.8364   -2.7197   53.8689 C.2     1  ZINC000583220082    0.5100
      5 O5        -11.0530   -3.0863   54.7190 O.2     1  ZINC000583220082   -0.5300
      6 C6        -11.3302   -2.2545   52.5279 C.3     1  ZINC000583220082   -0.1000
      7 C7        -10.2327   -1.2415   52.7291 C.ar    1  ZINC000583220082   -0.0800
      8 C8         -8.9518   -1.5147   52.2851 C.ar    1  ZINC000583220082   -0.0800
      9 C9         -7.9437   -0.5887   52.4679 C.ar    1  ZINC000583220082   -0.1400
     10 C10        -8.2177    0.6187   53.0979 C.ar    1  ZINC000583220082    0.1400
     11 N11        -7.2003    1.5581   53.2841 N.am    1  ZINC000583220082   -0.6400
     12 C12        -6.9480    2.4762   52.3302 C.2     1  ZINC000583220082    0.5100
     13 O13        -7.6046    2.4871   51.3095 O.2     1  ZINC000583220082   -0.4900
     14 C14        -5.8604    3.4804   52.5292 C.2     1  ZINC000583220082    0.5100
     15 O15        -5.8805    4.2131   53.4964 O.2     1  ZINC000583220082   -0.5100
     16 N16        -4.8565    3.5727   51.6346 N.am    1  ZINC000583220082   -0.5800
     17 C17        -3.7724    4.5501   51.8148 C.3     1  ZINC000583220082    0.0600
     18 C18        -2.4317    3.8187   51.6898 C.3     1  ZINC000583220082    0.0300
     19 N19        -2.3971    3.0796   50.4207 N.3     1  ZINC000583220082   -0.4300
     20 C20        -1.1446    2.5388   50.1961 C.2     1  ZINC000583220082    0.2900
     21 N21        -0.6566    2.0966   49.0564 N.2     1  ZINC000583220082   -0.5700
     22 C22         0.5714    1.6211   49.0816 C.2     1  ZINC000583220082    0.5400
     23 N23         1.1787    1.1293   47.9269 N.pl3   1  ZINC000583220082   -0.8200
     24 N24         1.2003    1.6266   50.2266 N.2     1  ZINC000583220082   -0.5500
     25 S25         0.1168    2.3053   51.3459 S.3     1  ZINC000583220082    0.2000
     26 C26        -3.4342    2.0399   50.3812 C.3     1  ZINC000583220082    0.0500
     27 C27        -4.8128    2.6944   50.4557 C.3     1  ZINC000583220082    0.1100
     28 C28        -9.5058    0.8902   53.5424 C.ar    1  ZINC000583220082   -0.1200
     29 C29       -10.5100   -0.0384   53.3521 C.ar    1  ZINC000583220082   -0.0800
     30 H30       -13.8362   -4.2529   55.3953 H       1  ZINC000583220082    0.0500
     31 H31       -12.9065   -2.9612   56.1924 H       1  ZINC000583220082    0.0800
     32 H32       -14.5795   -2.6582   55.6657 H       1  ZINC000583220082    0.0700
     33 H33       -15.1231   -2.3641   53.4814 H       1  ZINC000583220082    0.0800
     34 H34       -13.8964   -1.2515   52.8291 H       1  ZINC000583220082    0.0600
     35 H35       -14.0040   -2.9178   52.2128 H       1  ZINC000583220082    0.0600
     36 H36       -10.9404   -3.1066   51.9711 H       1  ZINC000583220082    0.1000
     37 H37       -12.1475   -1.7985   51.9692 H       1  ZINC000583220082    0.1000
     38 H38        -8.7395   -2.4536   51.7953 H       1  ZINC000583220082    0.1300
     39 H39        -6.9435   -0.8030   52.1215 H       1  ZINC000583220082    0.1300
     40 H40        -6.6754    1.5495   54.0998 H       1  ZINC000583220082    0.4200
     41 H41        -3.8423    5.3203   51.0466 H       1  ZINC000583220082    0.0900
     42 H42        -3.8503    5.0056   52.8020 H       1  ZINC000583220082    0.1700
     43 H43        -1.6182    4.5440   51.7106 H       1  ZINC000583220082    0.1100
     44 H44        -2.3189    3.1213   52.5199 H       1  ZINC000583220082    0.0700
     45 H45         0.6385    0.7290   47.2277 H       1  ZINC000583220082    0.4200
     46 H46         2.1413    1.1875   47.8228 H       1  ZINC000583220082    0.4200
     47 H47        -3.3479    1.4753   49.4527 H       1  ZINC000583220082    0.1100
     48 H48        -3.3076    1.3675   51.2295 H       1  ZINC000583220082    0.0600
     49 H49        -5.5794    1.9244   50.5421 H       1  ZINC000583220082    0.1100
     50 H50        -4.9854    3.2878   49.5579 H       1  ZINC000583220082    0.0900
     51 H51        -9.7222    1.8279   54.0326 H       1  ZINC000583220082    0.1400
     52 H52       -11.5116    0.1719   53.6972 H       1  ZINC000583220082    0.1300
@<TRIPOS>BOND
     1     1     2    1
     2     1    30    1
     3     1    31    1
     4     1    32    1
     5     2     3    1
     6     2     4   am
     7     3    33    1
     8     3    34    1
     9     3    35    1
    10     4     5    2
    11     4     6    1
    12     6     7    1
    13     6    36    1
    14     6    37    1
    15     7    29   ar
    16     7     8   ar
    17     8     9   ar
    18     8    38    1
    19     9    10   ar
    20     9    39    1
    21    10    11    1
    22    10    28   ar
    23    11    12   am
    24    11    40    1
    25    12    13    2
    26    12    14    1
    27    14    15    2
    28    14    16   am
    29    16    27    1
    30    16    17    1
    31    17    18    1
    32    17    41    1
    33    17    42    1
    34    18    19    1
    35    18    43    1
    36    18    44    1
    37    19    20    1
    38    19    26    1
    39    20    25    1
    40    20    21    2
    41    21    22    1
    42    22    23    1
    43    22    24    2
    44    23    45    1
    45    23    46    1
    46    24    25    1
    47    26    27    1
    48    26    47    1
    49    26    48    1
    50    27    49    1
    51    27    50    1
    52    28    29   ar
    53    28    51    1
    54    29    52    1
@<TRIPOS>SUBSTRUCTURE
     1 ZINC000583220082        1 TEMP              0 ****  ****    0 ROOT


##########                                Name:    ZINC000991934963
##########                DOCK_Rotatable_Bonds:                   8
##########                         Heavy_Atoms:                  27
##########                    Molecular_Weight:             370.495
##########                DOCK_Rotatable_Bonds:                   8
##########                       Formal_Charge:          -0.0499997
##########                     HBond_Acceptors:                   6
##########                        HBond_Donors:                   1
##########                         Heavy_Atoms:                  27
##########                          Grid_Score:          -38.870186
##########                     Grid_vdw_energy:          -37.813740
##########                      Grid_es_energy:           -1.056447
##########           Internal_energy_repulsive:           12.656580

@<TRIPOS>MOLECULE
ZINC000991934963
 57 61 1 0 0
SMALL
USER_CHARGES


@<TRIPOS>ATOM
      1 C1        -10.9191   -4.5707   57.1866 C.3     1  ZINC000991934963    0.0400
      2 O2        -10.4201   -4.4435   58.5196 O.3     1  ZINC000991934963   -0.2900
      3 C3        -10.1585   -3.1900   58.9614 C.ar    1  ZINC000991934963    0.5000
      4 N4         -9.3994   -3.0286   60.0329 N.ar    1  ZINC000991934963   -0.5700
      5 C5         -9.1242   -1.8183   60.4911 C.ar    1  ZINC000991934963    0.1900
      6 C6         -9.6415   -0.7134   59.8341 C.ar    1  ZINC000991934963   -0.2700
      7 C7        -10.4328   -0.9194   58.7148 C.ar    1  ZINC000991934963    0.2200
      8 C8        -11.0174    0.2516   57.9678 C.3     1  ZINC000991934963    0.1000
      9 N9        -10.3793    0.3590   56.6490 N.3     1  ZINC000991934963   -0.4900
     10 C10        -9.9756    1.7719   56.3617 C.3     1  ZINC000991934963    0.0400
     11 C11       -10.5823    2.1323   54.9693 C.3     1  ZINC000991934963   -0.1400
     12 C12       -10.7368    0.7477   54.3434 C.3     1  ZINC000991934963    0.1700
     13 N13        -9.4625    0.2084   53.8624 N.am    1  ZINC000991934963   -0.7000
     14 C14        -8.8572    0.7619   52.7929 C.2     1  ZINC000991934963    0.5200
     15 O15        -9.3682    1.7056   52.2279 O.2     1  ZINC000991934963   -0.5300
     16 C16        -7.5455    0.2081   52.2991 C.3     1  ZINC000991934963   -0.1100
     17 C17        -6.5531    1.3543   52.0934 C.3     1  ZINC000991934963   -0.1300
     18 H18        -6.3075    1.9294   52.9863 H       1  ZINC000991934963    0.1200
     19 C19        -6.6079    2.1060   50.7619 C.3     1  ZINC000991934963   -0.1700
     20 C20        -5.4466    1.1532   51.0561 C.3     1  ZINC000991934963   -0.1200
     21 H21        -5.4257    0.2045   50.5199 H       1  ZINC000991934963    0.1000
     22 C22        -4.0799    1.7750   51.3505 C.3     1  ZINC000991934963   -0.1200
     23 C23        -2.8931    1.3035   50.5080 C.3     1  ZINC000991934963   -0.1800
     24 C24        -3.4807    2.6989   50.2885 C.3     1  ZINC000991934963   -0.1800
     25 C25       -11.8921    0.4766   53.3857 C.3     1  ZINC000991934963   -0.1200
     26 C26       -12.1866   -1.0355   53.6351 C.3     1  ZINC000991934963   -0.1200
     27 C27       -11.6934   -1.3330   55.0837 C.3     1  ZINC000991934963   -0.1000
     28 C28       -11.2867    0.0007   55.6126 C.3     1  ZINC000991934963    0.0500
     29 H29       -12.2129    0.5297   55.8375 H       1  ZINC000991934963    0.0400
     30 N30       -10.6639   -2.1565   58.3074 N.ar    1  ZINC000991934963   -0.5000
     31 H31       -10.1927   -4.1590   56.4859 H       1  ZINC000991934963    0.0600
     32 H32       -11.0859   -5.6238   56.9600 H       1  ZINC000991934963    0.1100
     33 H33       -11.8592   -4.0265   57.0971 H       1  ZINC000991934963    0.0600
     34 H34        -8.5042   -1.6930   61.3666 H       1  ZINC000991934963    0.1700
     35 H35        -9.4332    0.2861   60.1865 H       1  ZINC000991934963    0.1500
     36 H36       -12.0899    0.1032   57.8416 H       1  ZINC000991934963    0.1000
     37 H37       -10.8413    1.1673   58.5322 H       1  ZINC000991934963    0.0600
     38 H38       -10.3748    2.4375   57.1270 H       1  ZINC000991934963    0.0600
     39 H39        -8.8889    1.8504   56.3275 H       1  ZINC000991934963    0.0800
     40 H40       -11.5494    2.6230   55.0786 H       1  ZINC000991934963    0.0800
     41 H41        -9.8951    2.7493   54.3904 H       1  ZINC000991934963    0.0900
     42 H42        -9.0544   -0.5472   54.3135 H       1  ZINC000991934963    0.4000
     43 H43        -7.1463   -0.4905   53.0344 H       1  ZINC000991934963    0.1000
     44 H44        -7.7029   -0.3102   51.3534 H       1  ZINC000991934963    0.0900
     45 H45        -7.3511    1.7839   50.0325 H       1  ZINC000991934963    0.0900
     46 H46        -6.3981    3.1755   50.7788 H       1  ZINC000991934963    0.1000
     47 H47        -3.8901    2.0197   52.3956 H       1  ZINC000991934963    0.1000
     48 H48        -1.9220    1.2378   50.9989 H       1  ZINC000991934963    0.0900
     49 H49        -3.0858    0.5503   49.7440 H       1  ZINC000991934963    0.0900
     50 H50        -4.0599    2.8639   49.3800 H       1  ZINC000991934963    0.0900
     51 H51        -2.8962    3.5514   50.6348 H       1  ZINC000991934963    0.0900
     52 H52       -12.7582    1.0871   53.6408 H       1  ZINC000991934963    0.0800
     53 H53       -11.5874    0.6466   52.3530 H       1  ZINC000991934963    0.0800
     54 H54       -13.2565   -1.2281   53.5555 H       1  ZINC000991934963    0.0700
     55 H55       -11.6395   -1.6481   52.9186 H       1  ZINC000991934963    0.0700
     56 H56       -12.5017   -1.7509   55.6836 H       1  ZINC000991934963    0.0700
     57 H57       -10.8409   -2.0119   55.0645 H       1  ZINC000991934963    0.0700
@<TRIPOS>BOND
     1     1     2    1
     2     1    31    1
     3     1    32    1
     4     1    33    1
     5     2     3    1
     6     3    30   ar
     7     3     4   ar
     8     4     5   ar
     9     5     6   ar
    10     5    34    1
    11     6     7   ar
    12     6    35    1
    13     7     8    1
    14     7    30   ar
    15     8     9    1
    16     8    36    1
    17     8    37    1
    18     9    28    1
    19     9    10    1
    20    10    11    1
    21    10    38    1
    22    10    39    1
    23    11    12    1
    24    11    40    1
    25    11    41    1
    26    12    28    1
    27    12    13    1
    28    12    25    1
    29    13    14   am
    30    13    42    1
    31    14    15    2
    32    14    16    1
    33    16    17    1
    34    16    43    1
    35    16    44    1
    36    17    18    1
    37    17    20    1
    38    17    19    1
    39    19    20    1
    40    19    45    1
    41    19    46    1
    42    20    21    1
    43    20    22    1
    44    22    24    1
    45    22    23    1
    46    22    47    1
    47    23    24    1
    48    23    48    1
    49    23    49    1
    50    24    50    1
    51    24    51    1
    52    25    26    1
    53    25    52    1
    54    25    53    1
    55    26    27    1
    56    26    54    1
    57    26    55    1
    58    27    28    1
    59    27    56    1
    60    27    57    1
    61    28    29    1
@<TRIPOS>SUBSTRUCTURE
     1 ZINC000991934963        1 TEMP              0 ****  ****    0 ROOT


##########                                Name:    ZINC001109848453
##########                DOCK_Rotatable_Bonds:                   8
##########                         Heavy_Atoms:                  24
##########                    Molecular_Weight:             328.337
##########                DOCK_Rotatable_Bonds:                   8
##########                       Formal_Charge:          0.00999966
##########                     HBond_Acceptors:                  11
##########                        HBond_Donors:                   2
##########                         Heavy_Atoms:                  24
##########                          Grid_Score:          -38.799187
##########                     Grid_vdw_energy:          -36.481468
##########                      Grid_es_energy:           -2.317718
##########           Internal_energy_repulsive:            8.432459

@<TRIPOS>MOLECULE
ZINC001109848453
 40 43 1 0 0
SMALL
USER_CHARGES


@<TRIPOS>ATOM
      1 O1         -2.5938    4.7530   52.3665 O.2     1  ZINC001109848453   -0.5000
      2 C2         -1.8423    3.8540   52.6794 C.2     1  ZINC001109848453    0.5000
      3 C3         -1.2216    3.8343   54.0525 C.3     1  ZINC001109848453    0.1100
      4 N4         -2.1499    3.2112   54.9991 N.pl3   1  ZINC001109848453   -0.3700
      5 C5         -1.8286    2.5277   56.1112 C.2     1  ZINC001109848453    0.2600
      6 N6         -2.9387    2.1345   56.6811 N.2     1  ZINC001109848453   -0.5400
      7 C7         -3.9845    2.5462   55.9655 C.2     1  ZINC001109848453    0.2000
      8 N8         -3.5525    3.2144   54.9284 N.2     1  ZINC001109848453   -0.2900
      9 N9         -1.5665    2.8696   51.8011 N.am    1  ZINC001109848453   -0.7300
     10 C10        -2.1700    2.8888   50.4663 C.3     1  ZINC001109848453    0.1700
     11 H11        -2.5683    3.8825   50.2617 H       1  ZINC001109848453    0.1000
     12 C12        -3.3030    1.8624   50.4040 C.3     1  ZINC001109848453    0.1200
     13 N13        -4.5924    2.5531   50.4857 N.pl3   1  ZINC001109848453   -0.6800
     14 C14        -5.5699    2.0945   51.3533 C.2     1  ZINC001109848453    0.4900
     15 N15        -5.9731    2.8465   52.3590 N.2     1  ZINC001109848453   -0.5300
     16 C16        -6.9148    2.4196   53.2041 C.2     1  ZINC001109848453    0.1400
     17 C17        -7.4888    1.2069   53.0639 C.2     1  ZINC001109848453   -0.0500
     18 N18        -7.1090    0.3858   52.0388 N.pl3   1  ZINC001109848453   -0.1800
     19 N19        -7.4602   -0.7900   51.6550 N.2     1  ZINC001109848453   -0.1000
     20 N20        -6.7820   -1.1163   50.6098 N.2     1  ZINC001109848453   -0.0400
     21 N21        -5.9754   -0.1609   50.2910 N.2     1  ZINC001109848453   -0.2600
     22 C22        -6.1493    0.8176   51.1652 C.2     1  ZINC001109848453    0.1000
     23 C23        -1.1080    2.5400   49.4214 C.3     1  ZINC001109848453   -0.1800
     24 C24         0.3311    2.9759   49.7040 C.3     1  ZINC001109848453   -0.1700
     25 C25        -0.0547    1.4987   49.8050 C.3     1  ZINC001109848453   -0.1700
     26 H26        -0.2938    3.2627   54.0237 H       1  ZINC001109848453    0.1300
     27 H27        -1.0096    4.8552   54.3701 H       1  ZINC001109848453    0.1200
     28 H28        -0.8285    2.3359   56.4711 H       1  ZINC001109848453    0.2200
     29 H29        -5.0211    2.3614   56.2057 H       1  ZINC001109848453    0.2200
     30 H30        -0.9685    2.1485   52.0528 H       1  ZINC001109848453    0.4000
     31 H31        -3.2441    1.3128   49.4646 H       1  ZINC001109848453    0.1000
     32 H32        -3.2097    1.1672   51.2383 H       1  ZINC001109848453    0.0900
     33 H33        -4.7617    3.3315   49.9322 H       1  ZINC001109848453    0.4200
     34 H34        -7.2235    3.0590   54.0180 H       1  ZINC001109848453    0.2000
     35 H35        -8.2479    0.8844   53.7613 H       1  ZINC001109848453    0.1900
     36 H36        -1.4450    2.5567   48.3849 H       1  ZINC001109848453    0.1100
     37 H37         0.9412    3.2796   48.8535 H       1  ZINC001109848453    0.1000
     38 H38         0.5213    3.5111   50.6343 H       1  ZINC001109848453    0.1000
     39 H39        -0.1183    1.0622   50.8018 H       1  ZINC001109848453    0.1200
     40 H40         0.3016    0.8307   49.0210 H       1  ZINC001109848453    0.0900
@<TRIPOS>BOND
     1     1     2    2
     2     2     3    1
     3     2     9   am
     4     3     4    1
     5     3    26    1
     6     3    27    1
     7     4     8    1
     8     4     5    1
     9     5     6    2
    10     5    28    1
    11     6     7    1
    12     7     8    2
    13     7    29    1
    14     9    10    1
    15     9    30    1
    16    10    11    1
    17    10    12    1
    18    10    23    1
    19    12    13    1
    20    12    31    1
    21    12    32    1
    22    13    14    1
    23    13    33    1
    24    14    22    1
    25    14    15    2
    26    15    16    1
    27    16    17    2
    28    16    34    1
    29    17    18    1
    30    17    35    1
    31    18    22    1
    32    18    19    1
    33    19    20    2
    34    20    21    1
    35    21    22    2
    36    23    25    1
    37    23    24    1
    38    23    36    1
    39    24    25    1
    40    24    37    1
    41    24    38    1
    42    25    39    1
    43    25    40    1
@<TRIPOS>SUBSTRUCTURE
     1 ZINC001109848453        1 TEMP              0 ****  ****    0 ROOT


##########                                Name:    ZINC000816269301
##########                DOCK_Rotatable_Bonds:                   7
##########                         Heavy_Atoms:                  25
##########                    Molecular_Weight:             358.784
##########                DOCK_Rotatable_Bonds:                   7
##########                       Formal_Charge:           0.0100002
##########                     HBond_Acceptors:                   8
##########                        HBond_Donors:                   1
##########                         Heavy_Atoms:                  25
##########                          Grid_Score:          -38.795742
##########                     Grid_vdw_energy:          -37.839561
##########                      Grid_es_energy:           -0.956182
##########           Internal_energy_repulsive:            6.591282

@<TRIPOS>MOLECULE
ZINC000816269301
 40 42 1 0 0
SMALL
USER_CHARGES


@<TRIPOS>ATOM
      1 C1         -9.1542   -2.0321   60.2624 C.3     1  ZINC000816269301    0.1000
      2 N2         -9.7668   -2.9316   59.2817 N.pl3   1  ZINC000816269301   -0.4000
      3 N3         -9.6551   -4.3289   59.2429 N.2     1  ZINC000816269301    0.0000
      4 N4        -10.3247   -4.7860   58.2442 N.2     1  ZINC000816269301   -0.2000
      5 C5        -10.9094   -3.7675   57.5696 C.ar    1  ZINC000816269301   -0.0300
      6 C6        -11.7258   -3.7182   56.4366 C.ar    1  ZINC000816269301    0.0500
      7 C7        -12.1809   -2.4898   55.9724 C.ar    1  ZINC000816269301   -0.1400
      8 C8        -13.0437   -2.4296   54.7766 C.2     1  ZINC000816269301    0.5200
      9 O9        -14.0692   -1.7787   54.7997 O.2     1  ZINC000816269301   -0.5000
     10 O10       -12.6942   -3.0965   53.6594 O.3     1  ZINC000816269301   -0.3500
     11 C11       -11.3424   -2.8972   53.1684 C.3     1  ZINC000816269301    0.0500
     12 C12       -11.0971   -1.4041   52.9416 C.3     1  ZINC000816269301    0.1200
     13 N13        -9.7850   -1.2138   52.3186 N.am    1  ZINC000816269301   -0.7200
     14 C14        -9.1283   -0.0470   52.4732 C.2     1  ZINC000816269301    0.5600
     15 O15        -9.6243    0.8470   53.1309 O.2     1  ZINC000816269301   -0.5300
     16 C16        -7.8055    0.1455   51.8432 C.ar    1  ZINC000816269301   -0.1300
     17 C17        -7.1093    1.3417   52.0263 C.ar    1  ZINC000816269301   -0.0700
     18 C18        -5.8753    1.5155   51.4359 C.ar    1  ZINC000816269301   -0.1200
     19 C19        -5.3263    0.5061   50.6624 C.ar    1  ZINC000816269301   -0.0100
     20 Cl20       -3.7721    0.7319   49.9227 Cl      1  ZINC000816269301   -0.0600
     21 C21        -6.0122   -0.6829   50.4770 C.ar    1  ZINC000816269301   -0.1200
     22 C22        -7.2443   -0.8705   51.0671 C.ar    1  ZINC000816269301   -0.0500
     23 C23       -11.8235   -1.3069   56.6363 C.ar    1  ZINC000816269301   -0.0200
     24 C24       -11.0276   -1.3488   57.7417 C.ar    1  ZINC000816269301   -0.1300
     25 C25       -10.5663   -2.5706   58.2260 C.ar    1  ZINC000816269301    0.1100
     26 H26        -9.8327   -1.8966   61.1047 H       1  ZINC000816269301    0.0900
     27 H27        -8.2178   -2.4637   60.6161 H       1  ZINC000816269301    0.1000
     28 H28        -8.9563   -1.0669   59.7963 H       1  ZINC000816269301    0.1000
     29 H29       -12.0011   -4.6286   55.9248 H       1  ZINC000816269301    0.1600
     30 H30       -10.6300   -3.2751   53.9017 H       1  ZINC000816269301    0.0800
     31 H31       -11.2147   -3.4333   52.2279 H       1  ZINC000816269301    0.1000
     32 H32       -11.8715   -1.0039   52.2872 H       1  ZINC000816269301    0.1000
     33 H33       -11.1243   -0.8820   53.8980 H       1  ZINC000816269301    0.0900
     34 H34        -9.3887   -1.9277   51.7948 H       1  ZINC000816269301    0.4000
     35 H35        -7.5365    2.1296   52.6289 H       1  ZINC000816269301    0.1400
     36 H36        -5.3360    2.4406   51.5765 H       1  ZINC000816269301    0.1400
     37 H37        -5.5792   -1.4664   49.8729 H       1  ZINC000816269301    0.1400
     38 H38        -7.7781   -1.7982   50.9223 H       1  ZINC000816269301    0.1500
     39 H39       -12.1812   -0.3564   56.2686 H       1  ZINC000816269301    0.1500
     40 H40       -10.7577   -0.4327   58.2462 H       1  ZINC000816269301    0.1400
@<TRIPOS>BOND
     1     1     2    1
     2     1    26    1
     3     1    27    1
     4     1    28    1
     5     2    25    1
     6     2     3    1
     7     3     4    2
     8     4     5    1
     9     5    25   ar
    10     5     6   ar
    11     6     7   ar
    12     6    29    1
    13     7     8    1
    14     7    23   ar
    15     8     9    2
    16     8    10    1
    17    10    11    1
    18    11    12    1
    19    11    30    1
    20    11    31    1
    21    12    13    1
    22    12    32    1
    23    12    33    1
    24    13    14   am
    25    13    34    1
    26    14    15    2
    27    14    16    1
    28    16    22   ar
    29    16    17   ar
    30    17    18   ar
    31    17    35    1
    32    18    19   ar
    33    18    36    1
    34    19    20    1
    35    19    21   ar
    36    21    22   ar
    37    21    37    1
    38    22    38    1
    39    23    24   ar
    40    23    39    1
    41    24    25   ar
    42    24    40    1
@<TRIPOS>SUBSTRUCTURE
     1 ZINC000816269301        1 TEMP              0 ****  ****    0 ROOT


##########                                Name:    ZINC000011620562
##########                DOCK_Rotatable_Bonds:                   9
##########                         Heavy_Atoms:                  29
##########                    Molecular_Weight:             417.448
##########                DOCK_Rotatable_Bonds:                   9
##########                       Formal_Charge:           0.0299999
##########                     HBond_Acceptors:                  12
##########                        HBond_Donors:                   1
##########                         Heavy_Atoms:                  29
##########                          Grid_Score:          -38.753593
##########                     Grid_vdw_energy:          -37.597221
##########                      Grid_es_energy:           -1.156374
##########           Internal_energy_repulsive:           12.677916

@<TRIPOS>MOLECULE
ZINC000011620562
 48 50 1 0 0
SMALL
USER_CHARGES


@<TRIPOS>ATOM
      1 C1         -1.5602    1.2991   49.2100 C.3     1  ZINC000011620562    0.0400
      2 O2         -2.5718    2.1462   48.6039 O.3     1  ZINC000011620562   -0.3500
      3 C3         -3.8176    2.0547   49.0956 C.2     1  ZINC000011620562    0.4600
      4 O4         -4.7059    2.7200   48.6180 O.2     1  ZINC000011620562   -0.5000
      5 C5         -4.1081    1.1221   50.2431 C.3     1  ZINC000011620562    0.1300
      6 N6         -5.1275    1.7178   51.1104 N.am    1  ZINC000011620562   -0.7200
      7 C7         -6.3757    1.2096   51.1307 C.2     1  ZINC000011620562    0.5400
      8 O8         -6.6545    0.2583   50.4321 O.2     1  ZINC000011620562   -0.5200
      9 C9         -7.4248    1.8236   52.0215 C.3     1  ZINC000011620562   -0.1600
     10 S10        -8.3581    0.5111   52.8474 S.3     1  ZINC000011620562    0.1400
     11 C11        -9.9782    1.2011   52.7836 C.2     1  ZINC000011620562    0.2100
     12 N12       -10.4049    2.1187   51.9425 N.2     1  ZINC000011620562   -0.3400
     13 N13       -11.6379    2.3975   52.1687 N.2     1  ZINC000011620562   -0.0300
     14 N14       -12.0842    1.6935   53.1519 N.2     1  ZINC000011620562   -0.0800
     15 N15       -11.0217    0.8826   53.5879 N.pl3   1  ZINC000011620562   -0.2600
     16 C16       -11.0364   -0.0541   54.6392 C.2     1  ZINC000011620562   -0.1300
     17 C17       -11.1727   -1.3933   54.5091 C.2     1  ZINC000011620562    0.2500
     18 C18       -11.3356   -2.1412   53.2111 C.3     1  ZINC000011620562   -0.1100
     19 N19       -11.1372   -1.9535   55.7576 N.pl3   1  ZINC000011620562   -0.3700
     20 C20       -11.2508   -3.3822   56.0610 C.3     1  ZINC000011620562    0.0900
     21 N21       -10.9732   -0.9256   56.6952 N.am    1  ZINC000011620562   -0.3600
     22 C22       -10.8896   -1.0813   58.0824 C.ar    1  ZINC000011620562    0.1400
     23 C23        -9.6831   -1.4370   58.6714 C.ar    1  ZINC000011620562   -0.1300
     24 C24        -9.6038   -1.5894   60.0417 C.ar    1  ZINC000011620562   -0.1000
     25 C25       -10.7239   -1.3883   60.8273 C.ar    1  ZINC000011620562   -0.1100
     26 C26       -11.9268   -1.0344   60.2440 C.ar    1  ZINC000011620562   -0.1000
     27 C27       -12.0115   -0.8747   58.8748 C.ar    1  ZINC000011620562   -0.1000
     28 C28       -10.9047    0.2403   56.0210 C.2     1  ZINC000011620562    0.5500
     29 O29       -10.7631    1.3464   56.5100 O.2     1  ZINC000011620562   -0.5000
     30 H30        -1.8448    0.2533   49.0940 H       1  ZINC000011620562    0.0700
     31 H31        -0.6015    1.4712   48.7206 H       1  ZINC000011620562    0.1100
     32 H32        -1.4748    1.5370   50.2703 H       1  ZINC000011620562    0.0700
     33 H33        -4.4721    0.1708   49.8550 H       1  ZINC000011620562    0.1200
     34 H34        -3.1958    0.9556   50.8160 H       1  ZINC000011620562    0.1200
     35 H35        -4.9041    2.4779   51.6700 H       1  ZINC000011620562    0.4200
     36 H36        -6.9430    2.4530   52.7698 H       1  ZINC000011620562    0.1400
     37 H37        -8.1032    2.4287   51.4200 H       1  ZINC000011620562    0.1400
     38 H38       -11.3280   -1.4347   52.3811 H       1  ZINC000011620562    0.1000
     39 H39       -10.5147   -2.8485   53.0937 H       1  ZINC000011620562    0.1000
     40 H40       -12.2823   -2.6815   53.2195 H       1  ZINC000011620562    0.1000
     41 H41       -11.4050   -3.9388   55.1366 H       1  ZINC000011620562    0.1100
     42 H42       -10.3353   -3.7251   56.5432 H       1  ZINC000011620562    0.0900
     43 H43       -12.0965   -3.5457   56.7289 H       1  ZINC000011620562    0.0900
     44 H44        -8.8079   -1.5946   58.0584 H       1  ZINC000011620562    0.1300
     45 H45        -8.6660   -1.8664   60.5003 H       1  ZINC000011620562    0.1300
     46 H46       -10.6591   -1.5081   61.8987 H       1  ZINC000011620562    0.1300
     47 H47       -12.7998   -0.8787   60.8603 H       1  ZINC000011620562    0.1400
     48 H48       -12.9511   -0.5981   58.4200 H       1  ZINC000011620562    0.1400
@<TRIPOS>BOND
     1     1     2    1
     2     1    30    1
     3     1    31    1
     4     1    32    1
     5     2     3    1
     6     3     4    2
     7     3     5    1
     8     5     6    1
     9     5    33    1
    10     5    34    1
    11     6     7   am
    12     6    35    1
    13     7     8    2
    14     7     9    1
    15     9    10    1
    16     9    36    1
    17     9    37    1
    18    10    11    1
    19    11    15    1
    20    11    12    2
    21    12    13    1
    22    13    14    2
    23    14    15    1
    24    15    16    1
    25    16    28    1
    26    16    17    2
    27    17    18    1
    28    17    19    1
    29    18    38    1
    30    18    39    1
    31    18    40    1
    32    19    20    1
    33    19    21    1
    34    20    41    1
    35    20    42    1
    36    20    43    1
    37    21    22    1
    38    21    28   am
    39    22    27   ar
    40    22    23   ar
    41    23    24   ar
    42    23    44    1
    43    24    25   ar
    44    24    45    1
    45    25    26   ar
    46    25    46    1
    47    26    27   ar
    48    26    47    1
    49    27    48    1
    50    28    29    2
@<TRIPOS>SUBSTRUCTURE
     1 ZINC000011620562        1 TEMP              0 ****  ****    0 ROOT


##########                                Name:    ZINC000599797189
##########                DOCK_Rotatable_Bonds:                  13
##########                         Heavy_Atoms:                  23
##########                    Molecular_Weight:             329.313
##########                DOCK_Rotatable_Bonds:                  13
##########                       Formal_Charge:          0.00999949
##########                     HBond_Acceptors:                  11
##########                        HBond_Donors:                   3
##########                         Heavy_Atoms:                  23
##########                          Grid_Score:          -38.733421
##########                     Grid_vdw_energy:          -34.750336
##########                      Grid_es_energy:           -3.983086
##########           Internal_energy_repulsive:           12.320275

@<TRIPOS>MOLECULE
ZINC000599797189
 42 42 1 0 0
SMALL
USER_CHARGES


@<TRIPOS>ATOM
      1 C1        -10.9883   -2.1254   52.7147 C.3     1  ZINC000599797189   -0.1500
      2 C2        -11.6344   -3.3638   53.3392 C.3     1  ZINC000599797189    0.0600
      3 O3        -12.1772   -3.0217   54.6417 O.3     1  ZINC000599797189   -0.3600
      4 C4        -12.9039   -3.9623   55.2652 C.2     1  ZINC000599797189    0.4500
      5 O5        -13.3544   -4.8918   54.6385 O.2     1  ZINC000599797189   -0.4800
      6 C6        -13.1580   -3.8589   56.7471 C.3     1  ZINC000599797189    0.1500
      7 N7        -11.8794   -3.7698   57.4568 N.pl3   1  ZINC000599797189   -0.3800
      8 C8        -10.9507   -4.7349   57.5649 C.2     1  ZINC000599797189    0.2800
      9 N9         -9.9555   -4.2668   58.2741 N.2     1  ZINC000599797189   -0.5100
     10 C10       -10.2121   -3.0065   58.6367 C.2     1  ZINC000599797189    0.4700
     11 N11        -9.3708   -2.1920   59.4018 N.am    1  ZINC000599797189   -0.6400
     12 C12        -9.6722   -1.9329   60.6897 C.2     1  ZINC000599797189    0.7100
     13 O13       -10.6762   -2.4060   61.1861 O.2     1  ZINC000599797189   -0.5300
     14 N14        -8.8606   -1.1494   61.4272 N.am    1  ZINC000599797189   -0.7300
     15 C15        -9.1873   -0.8693   62.8276 C.3     1  ZINC000599797189    0.1100
     16 C16        -8.6217    0.4971   63.2198 C.3     1  ZINC000599797189    0.1100
     17 H17        -7.5414    0.4982   63.0753 H       1  ZINC000599797189    0.1200
     18 O18        -9.2128    1.5096   62.4026 O.3     1  ZINC000599797189   -0.5400
     19 C19        -8.9400    0.7780   64.6898 C.3     1  ZINC000599797189   -0.1500
     20 C20        -7.9655    0.0339   65.5658 C.2     1  ZINC000599797189    0.4600
     21 O21        -8.2412   -1.0692   65.9748 O.2     1  ZINC000599797189   -0.4900
     22 O22        -6.7912    0.5964   65.8918 O.3     1  ZINC000599797189   -0.3600
     23 C23        -6.5143    1.9109   65.3404 C.3     1  ZINC000599797189    0.0400
     24 N24       -11.3801   -2.6571   58.1530 N.2     1  ZINC000599797189   -0.3200
     25 H25       -10.5808   -2.3822   51.7368 H       1  ZINC000599797189    0.0800
     26 H26       -11.7380   -1.3424   52.6016 H       1  ZINC000599797189    0.0700
     27 H27       -10.1857   -1.7695   53.3606 H       1  ZINC000599797189    0.0700
     28 H28       -12.4370   -3.7197   52.6932 H       1  ZINC000599797189    0.0700
     29 H29       -10.8846   -4.1468   53.4522 H       1  ZINC000599797189    0.0700
     30 H30       -13.7506   -2.9675   56.9527 H       1  ZINC000599797189    0.1500
     31 H31       -13.7004   -4.7417   57.0852 H       1  ZINC000599797189    0.1300
     32 H32       -11.0147   -5.7258   57.1402 H       1  ZINC000599797189    0.2300
     33 H33        -8.5703   -1.8136   59.0055 H       1  ZINC000599797189    0.4200
     34 H34        -8.0602   -0.7711   61.0309 H       1  ZINC000599797189    0.4000
     35 H35       -10.2699   -0.8644   62.9541 H       1  ZINC000599797189    0.0800
     36 H36        -8.7508   -1.6394   63.4636 H       1  ZINC000599797189    0.0800
     37 H37        -8.9935    1.4349   61.4637 H       1  ZINC000599797189    0.3800
     38 H38        -8.8572    1.8478   64.8815 H       1  ZINC000599797189    0.1200
     39 H39        -9.9544    0.4465   64.9116 H       1  ZINC000599797189    0.1200
     40 H40        -6.5210    1.8570   64.2518 H       1  ZINC000599797189    0.0600
     41 H41        -7.2782    2.6132   65.6742 H       1  ZINC000599797189    0.0600
     42 H42        -5.5358    2.2491   65.6814 H       1  ZINC000599797189    0.1000
@<TRIPOS>BOND
     1     1     2    1
     2     1    25    1
     3     1    26    1
     4     1    27    1
     5     2     3    1
     6     2    28    1
     7     2    29    1
     8     3     4    1
     9     4     5    2
    10     4     6    1
    11     6     7    1
    12     6    30    1
    13     6    31    1
    14     7    24    1
    15     7     8    1
    16     8     9    2
    17     8    32    1
    18     9    10    1
    19    10    11    1
    20    10    24    2
    21    11    12   am
    22    11    33    1
    23    12    13    2
    24    12    14   am
    25    14    15    1
    26    14    34    1
    27    15    16    1
    28    15    35    1
    29    15    36    1
    30    16    17    1
    31    16    18    1
    32    16    19    1
    33    18    37    1
    34    19    20    1
    35    19    38    1
    36    19    39    1
    37    20    21    2
    38    20    22    1
    39    22    23    1
    40    23    40    1
    41    23    41    1
    42    23    42    1
@<TRIPOS>SUBSTRUCTURE
     1 ZINC000599797189        1 TEMP              0 ****  ****    0 ROOT


##########                                Name:    ZINC000957079511
##########                DOCK_Rotatable_Bonds:                   8
##########                         Heavy_Atoms:                  25
##########                    Molecular_Weight:             362.453
##########                DOCK_Rotatable_Bonds:                   8
##########                       Formal_Charge:        -4.32134e-07
##########                     HBond_Acceptors:                   8
##########                        HBond_Donors:                   2
##########                         Heavy_Atoms:                  25
##########                          Grid_Score:          -38.712063
##########                     Grid_vdw_energy:          -35.069370
##########                      Grid_es_energy:           -3.642694
##########           Internal_energy_repulsive:           10.169300

@<TRIPOS>MOLECULE
ZINC000957079511
 47 49 1 0 0
SMALL
USER_CHARGES


@<TRIPOS>ATOM
      1 C1          2.4168    1.8723   46.6130 C.3     1  ZINC000957079511   -0.0700
      2 C2          2.5599    1.8834   48.1132 C.2     1  ZINC000957079511    0.0300
      3 C3          1.6187    2.2706   48.9950 C.2     1  ZINC000957079511   -0.0200
      4 C4          0.2347    2.7707   48.6701 C.3     1  ZINC000957079511   -0.0600
      5 C5         -0.7509    2.1964   49.6549 C.2     1  ZINC000957079511    0.5100
      6 O6         -0.4674    1.2002   50.2858 O.2     1  ZINC000957079511   -0.5200
      7 N7         -1.9476    2.7900   49.8345 N.am    1  ZINC000957079511   -0.7200
      8 C8         -2.9065    2.2307   50.7906 C.3     1  ZINC000957079511    0.1400
      9 H9         -2.3935    1.6747   51.5753 H       1  ZINC000957079511    0.1100
     10 C10        -3.9520    1.3412   50.0724 C.3     1  ZINC000957079511    0.0800
     11 N11        -5.1327    1.3594   50.9549 N.am    1  ZINC000957079511   -0.6200
     12 C12        -6.0907    0.4127   51.0046 C.2     1  ZINC000957079511    0.5400
     13 O13        -6.0230   -0.5573   50.2796 O.2     1  ZINC000957079511   -0.5100
     14 C14        -7.2462    0.5593   51.9610 C.3     1  ZINC000957079511    0.0500
     15 O15        -8.1427   -0.5414   51.7973 O.3     1  ZINC000957079511   -0.2800
     16 C16        -9.2287   -0.5819   52.6185 C.2     1  ZINC000957079511    0.1200
     17 C17        -9.5333    0.4117   53.4585 C.2     1  ZINC000957079511   -0.3300
     18 S18       -10.9941    0.0047   54.3494 S.3     1  ZINC000957079511    0.1300
     19 C19       -11.1149   -1.5356   53.5092 C.2     1  ZINC000957079511   -0.1800
     20 C20       -10.1067   -1.6549   52.6433 C.2     1  ZINC000957079511   -0.1400
     21 C21        -5.0917    2.5807   51.7725 C.3     1  ZINC000957079511    0.1100
     22 C22        -3.8042    3.3434   51.3933 C.3     1  ZINC000957079511   -0.1100
     23 H23        -4.0161    4.1120   50.6499 H       1  ZINC000957079511    0.0900
     24 C24        -3.1538    3.9580   52.6343 C.3     1  ZINC000957079511   -0.1400
     25 N25         2.1604    2.1221   50.2433 N.pl3   1  ZINC000957079511   -0.5600
     26 C26         3.4148    1.6490   50.0806 C.2     1  ZINC000957079511    0.2000
     27 N27         3.6451    1.5040   48.8043 N.2     1  ZINC000957079511   -0.4900
     28 H28         2.0203    0.9088   46.2930 H       1  ZINC000957079511    0.0700
     29 H29         1.7347    2.6656   46.3071 H       1  ZINC000957079511    0.0600
     30 H30         3.3920    2.0345   46.1538 H       1  ZINC000957079511    0.0700
     31 H31         0.2178    3.8589   48.7317 H       1  ZINC000957079511    0.1000
     32 H32        -0.0364    2.4597   47.6613 H       1  ZINC000957079511    0.1200
     33 H33        -2.1739    3.5875   49.3309 H       1  ZINC000957079511    0.4000
     34 H34        -4.2007    1.7602   49.0973 H       1  ZINC000957079511    0.0800
     35 H35        -3.5747    0.3244   49.9643 H       1  ZINC000957079511    0.0800
     36 H36        -6.8712    0.5734   52.9843 H       1  ZINC000957079511    0.0900
     37 H37        -7.7730    1.4908   51.7541 H       1  ZINC000957079511    0.0900
     38 H38        -8.9685    1.3251   53.5731 H       1  ZINC000957079511    0.1700
     39 H39       -11.8898   -2.2711   53.6670 H       1  ZINC000957079511    0.1800
     40 H40        -9.9799   -2.5242   52.0151 H       1  ZINC000957079511    0.1500
     41 H41        -5.9647    3.1980   51.5606 H       1  ZINC000957079511    0.0800
     42 H42        -5.0684    2.3181   52.8301 H       1  ZINC000957079511    0.0800
     43 H43        -2.9232    3.1702   53.3514 H       1  ZINC000957079511    0.0600
     44 H44        -2.2346    4.4688   52.3474 H       1  ZINC000957079511    0.0600
     45 H45        -3.8404    4.6728   53.0879 H       1  ZINC000957079511    0.0700
     46 H46         1.7248    2.3198   51.0871 H       1  ZINC000957079511    0.4200
     47 H47         4.1107    1.4240   50.8753 H       1  ZINC000957079511    0.2100
@<TRIPOS>BOND
     1     1     2    1
     2     1    28    1
     3     1    29    1
     4     1    30    1
     5     2    27    1
     6     2     3    2
     7     3     4    1
     8     3    25    1
     9     4     5    1
    10     4    31    1
    11     4    32    1
    12     5     6    2
    13     5     7   am
    14     7     8    1
    15     7    33    1
    16     8     9    1
    17     8    22    1
    18     8    10    1
    19    10    11    1
    20    10    34    1
    21    10    35    1
    22    11    12   am
    23    11    21    1
    24    12    13    2
    25    12    14    1
    26    14    15    1
    27    14    36    1
    28    14    37    1
    29    15    16    1
    30    16    20    1
    31    16    17    2
    32    17    18    1
    33    17    38    1
    34    18    19    1
    35    19    20    2
    36    19    39    1
    37    20    40    1
    38    21    22    1
    39    21    41    1
    40    21    42    1
    41    22    23    1
    42    22    24    1
    43    24    43    1
    44    24    44    1
    45    24    45    1
    46    25    26    1
    47    25    46    1
    48    26    27    2
    49    26    47    1
@<TRIPOS>SUBSTRUCTURE
     1 ZINC000957079511        1 TEMP              0 ****  ****    0 ROOT


##########                                Name:    ZINC001090961577
##########                DOCK_Rotatable_Bonds:                   9
##########                         Heavy_Atoms:                  24
##########                    Molecular_Weight:             352.458
##########                DOCK_Rotatable_Bonds:                   9
##########                       Formal_Charge:                0.02
##########                     HBond_Acceptors:                   8
##########                        HBond_Donors:                   1
##########                         Heavy_Atoms:                  24
##########                          Grid_Score:          -38.676643
##########                     Grid_vdw_energy:          -35.138115
##########                      Grid_es_energy:           -3.538527
##########           Internal_energy_repulsive:            5.548732

@<TRIPOS>MOLECULE
ZINC001090961577
 48 49 1 0 0
SMALL
USER_CHARGES


@<TRIPOS>ATOM
      1 C1        -14.0007   -1.2637   50.4237 C.3     1  ZINC001090961577   -0.1400
      2 C2        -13.2522   -0.2319   51.2701 C.3     1  ZINC001090961577   -0.0900
      3 S3        -11.8599   -1.0350   52.1109 S.3     1  ZINC001090961577   -0.2700
      4 C4        -11.0102    0.3537   52.9108 C.3     1  ZINC001090961577   -0.0700
      5 C5         -9.7248   -0.1475   53.5721 C.3     1  ZINC001090961577   -0.1200
      6 C6         -8.6863   -0.4150   52.5134 C.2     1  ZINC001090961577    0.5400
      7 O7         -8.5859   -1.5221   52.0284 O.2     1  ZINC001090961577   -0.5300
      8 N8         -7.8690    0.5760   52.1055 N.am    1  ZINC001090961577   -0.6200
      9 C9         -7.8818    1.9582   52.6067 C.3     1  ZINC001090961577    0.1100
     10 C10        -6.7584    2.7216   51.8740 C.3     1  ZINC001090961577   -0.1100
     11 H11        -7.1562    3.2624   51.0153 H       1  ZINC001090961577    0.0900
     12 C12        -6.0419    3.6782   52.8292 C.3     1  ZINC001090961577   -0.1400
     13 C13        -5.8080    1.5845   51.4144 C.3     1  ZINC001090961577    0.1500
     14 H14        -5.1365    1.2871   52.2198 H       1  ZINC001090961577    0.1200
     15 N15        -5.0521    1.9810   50.2238 N.pl3   1  ZINC001090961577   -0.6700
     16 C16        -3.6757    1.8960   50.2209 C.ar    1  ZINC001090961577    0.5900
     17 N17        -2.9904    2.5119   51.1755 N.ar    1  ZINC001090961577   -0.5700
     18 C18        -1.6725    2.4549   51.2083 C.ar    1  ZINC001090961577    0.2700
     19 C19        -0.9989    1.7307   50.2152 C.ar    1  ZINC001090961577   -0.3000
     20 C20         0.4726    1.6395   50.2123 C.2     1  ZINC001090961577    0.5300
     21 O21         1.0235    0.6912   50.7354 O.2     1  ZINC001090961577   -0.5100
     22 O22         1.2065    2.6076   49.6296 O.3     1  ZINC001090961577   -0.3600
     23 C23         1.9178    2.2542   48.4140 C.3     1  ZINC001090961577    0.0400
     24 C24        -1.7607    1.0951   49.2252 C.ar    1  ZINC001090961577    0.2600
     25 N25        -3.0757    1.1962   49.2665 N.ar    1  ZINC001090961577   -0.5700
     26 C26        -6.8098    0.4520   51.0876 C.3     1  ZINC001090961577    0.0900
     27 H27       -14.8374   -0.7811   49.9185 H       1  ZINC001090961577    0.0700
     28 H28       -13.3228   -1.6857   49.6819 H       1  ZINC001090961577    0.0700
     29 H29       -14.3752   -2.0592   51.0679 H       1  ZINC001090961577    0.0700
     30 H30       -12.8777    0.5636   50.6259 H       1  ZINC001090961577    0.0800
     31 H31       -13.9302    0.1901   52.0120 H       1  ZINC001090961577    0.0800
     32 H32       -10.7640    1.1081   52.1635 H       1  ZINC001090961577    0.0900
     33 H33       -11.6615    0.7910   53.6676 H       1  ZINC001090961577    0.0900
     34 H34        -9.3528    0.6090   54.2631 H       1  ZINC001090961577    0.1000
     35 H35        -9.9321   -1.0677   54.1184 H       1  ZINC001090961577    0.1000
     36 H36        -8.8450    2.4211   52.3929 H       1  ZINC001090961577    0.0800
     37 H37        -7.6951    1.9648   53.6806 H       1  ZINC001090961577    0.0800
     38 H38        -5.6264    3.1143   53.6643 H       1  ZINC001090961577    0.0600
     39 H39        -5.2372    4.1869   52.2981 H       1  ZINC001090961577    0.0600
     40 H40        -6.7515    4.4150   53.2055 H       1  ZINC001090961577    0.0700
     41 H41        -5.5198    2.3033   49.4374 H       1  ZINC001090961577    0.4200
     42 H42        -1.1214    2.9592   51.9882 H       1  ZINC001090961577    0.1800
     43 H43         2.4676    3.1221   48.0495 H       1  ZINC001090961577    0.1100
     44 H44         2.6158    1.4439   48.6241 H       1  ZINC001090961577    0.0700
     45 H45         1.2039    1.9316   47.6562 H       1  ZINC001090961577    0.0700
     46 H46        -1.2790    0.5276   48.4428 H       1  ZINC001090961577    0.1800
     47 H47        -6.3210   -0.5195   51.1603 H       1  ZINC001090961577    0.0900
     48 H48        -7.2298    0.5928   50.0916 H       1  ZINC001090961577    0.0800
@<TRIPOS>BOND
     1     1     2    1
     2     1    27    1
     3     1    28    1
     4     1    29    1
     5     2     3    1
     6     2    30    1
     7     2    31    1
     8     3     4    1
     9     4     5    1
    10     4    32    1
    11     4    33    1
    12     5     6    1
    13     5    34    1
    14     5    35    1
    15     6     7    2
    16     6     8   am
    17     8    26    1
    18     8     9    1
    19     9    10    1
    20     9    36    1
    21     9    37    1
    22    10    11    1
    23    10    12    1
    24    10    13    1
    25    12    38    1
    26    12    39    1
    27    12    40    1
    28    13    14    1
    29    13    15    1
    30    13    26    1
    31    15    16    1
    32    15    41    1
    33    16    25   ar
    34    16    17   ar
    35    17    18   ar
    36    18    19   ar
    37    18    42    1
    38    19    20    1
    39    19    24   ar
    40    20    21    2
    41    20    22    1
    42    22    23    1
    43    23    43    1
    44    23    44    1
    45    23    45    1
    46    24    25   ar
    47    24    46    1
    48    26    47    1
    49    26    48    1
@<TRIPOS>SUBSTRUCTURE
     1 ZINC001090961577        1 TEMP              0 ****  ****    0 ROOT


##########                                Name:    ZINC000420486261
##########                DOCK_Rotatable_Bonds:                   7
##########                         Heavy_Atoms:                  26
##########                    Molecular_Weight:             353.378
##########                DOCK_Rotatable_Bonds:                   7
##########                       Formal_Charge:        -2.98023e-08
##########                     HBond_Acceptors:                   7
##########                        HBond_Donors:                   0
##########                         Heavy_Atoms:                  26
##########                          Grid_Score:          -38.637184
##########                     Grid_vdw_energy:          -37.886799
##########                      Grid_es_energy:           -0.750383
##########           Internal_energy_repulsive:           11.642365

@<TRIPOS>MOLECULE
ZINC000420486261
 45 47 1 0 0
SMALL
USER_CHARGES


@<TRIPOS>ATOM
      1 C1         -4.4574    2.0410   49.9236 C.3     1  ZINC000420486261    0.0400
      2 O2         -5.7071    2.1334   50.6571 O.3     1  ZINC000420486261   -0.3500
      3 C3         -6.3617    0.9812   50.8972 C.2     1  ZINC000420486261    0.5100
      4 O4         -6.0190   -0.0400   50.3367 O.2     1  ZINC000420486261   -0.4900
      5 C5         -7.4992    0.9597   51.8446 C.ar    1  ZINC000420486261   -0.0700
      6 C6         -7.8750    2.1128   52.5416 C.ar    1  ZINC000420486261   -0.0900
      7 C7         -8.9442    2.0535   53.4185 C.ar    1  ZINC000420486261    0.1100
      8 N8         -9.6077    0.9332   53.6046 N.ar    1  ZINC000420486261   -0.4200
      9 C9         -9.2890   -0.1862   52.9665 C.ar    1  ZINC000420486261    0.1900
     10 C10       -10.0706   -1.4183   53.2140 C.2     1  ZINC000420486261    0.2200
     11 N11       -10.8272   -1.6707   54.2642 N.2     1  ZINC000420486261   -0.4300
     12 C12       -11.3369   -2.9027   54.0543 C.2     1  ZINC000420486261    0.2200
     13 C13       -12.2553   -3.6390   54.9569 C.ar    1  ZINC000420486261   -0.0600
     14 C14       -13.1556   -4.5649   54.4352 C.ar    1  ZINC000420486261   -0.0300
     15 C15       -14.0081   -5.2475   55.2791 C.ar    1  ZINC000420486261   -0.1600
     16 C16       -13.9721   -5.0157   56.6428 C.ar    1  ZINC000420486261   -0.0600
     17 C17       -13.0830   -4.0994   57.1712 C.ar    1  ZINC000420486261   -0.2200
     18 C18       -12.2172   -3.4110   56.3361 C.ar    1  ZINC000420486261    0.1700
     19 O19       -11.3427   -2.5103   56.8540 O.3     1  ZINC000420486261   -0.2900
     20 C20       -10.8677   -2.7554   58.1792 C.3     1  ZINC000420486261    0.0600
     21 C21        -9.8926   -1.6482   58.5844 C.3     1  ZINC000420486261   -0.0900
     22 C22       -10.6395   -0.3154   58.6656 C.3     1  ZINC000420486261   -0.1500
     23 C23        -9.2865   -1.9771   59.9502 C.3     1  ZINC000420486261   -0.1500
     24 N24       -10.8714   -3.3275   52.9071 N.2     1  ZINC000420486261   -0.3400
     25 O25       -10.1493   -2.4896   52.4098 O.3     1  ZINC000420486261    0.1000
     26 C26        -8.2295   -0.2116   52.0619 C.ar    1  ZINC000420486261   -0.0700
     27 H27        -4.0347    3.0380   49.7989 H       1  ZINC000420486261    0.1100
     28 H28        -3.7566    1.4159   50.4770 H       1  ZINC000420486261    0.0700
     29 H29        -4.6426    1.5998   48.9442 H       1  ZINC000420486261    0.0700
     30 H30        -7.3372    3.0382   52.3975 H       1  ZINC000420486261    0.1600
     31 H31        -9.2380    2.9412   53.9589 H       1  ZINC000420486261    0.1800
     32 H32       -13.1869   -4.7482   53.3713 H       1  ZINC000420486261    0.1400
     33 H33       -14.7062   -5.9649   54.8735 H       1  ZINC000420486261    0.1300
     34 H34       -14.6424   -5.5531   57.2973 H       1  ZINC000420486261    0.1300
     35 H35       -13.0595   -3.9227   58.2364 H       1  ZINC000420486261    0.1400
     36 H36       -11.7102   -2.7685   58.8705 H       1  ZINC000420486261    0.0600
     37 H37       -10.3575   -3.7181   58.2100 H       1  ZINC000420486261    0.0600
     38 H38        -9.0977   -1.5747   57.8423 H       1  ZINC000420486261    0.0800
     39 H39       -11.4345   -0.3889   59.4076 H       1  ZINC000420486261    0.0600
     40 H40        -9.9449    0.4734   58.9541 H       1  ZINC000420486261    0.0700
     41 H41       -11.0713   -0.0811   57.6925 H       1  ZINC000420486261    0.0600
     42 H42       -10.0815   -2.0506   60.6923 H       1  ZINC000420486261    0.0500
     43 H43        -8.7544   -2.9266   59.8925 H       1  ZINC000420486261    0.0600
     44 H44        -8.5918   -1.1883   60.2389 H       1  ZINC000420486261    0.0600
     45 H45        -7.9720   -1.1233   51.5435 H       1  ZINC000420486261    0.1600
@<TRIPOS>BOND
     1     1     2    1
     2     1    27    1
     3     1    28    1
     4     1    29    1
     5     2     3    1
     6     3     4    2
     7     3     5    1
     8     5    26   ar
     9     5     6   ar
    10     6     7   ar
    11     6    30    1
    12     7     8   ar
    13     7    31    1
    14     8     9   ar
    15     9    10    1
    16     9    26   ar
    17    10    25    1
    18    10    11    2
    19    11    12    1
    20    12    13    1
    21    12    24    2
    22    13    18   ar
    23    13    14   ar
    24    14    15   ar
    25    14    32    1
    26    15    16   ar
    27    15    33    1
    28    16    17   ar
    29    16    34    1
    30    17    18   ar
    31    17    35    1
    32    18    19    1
    33    19    20    1
    34    20    21    1
    35    20    36    1
    36    20    37    1
    37    21    22    1
    38    21    23    1
    39    21    38    1
    40    22    39    1
    41    22    40    1
    42    22    41    1
    43    23    42    1
    44    23    43    1
    45    23    44    1
    46    24    25    1
    47    26    45    1
@<TRIPOS>SUBSTRUCTURE
     1 ZINC000420486261        1 TEMP              0 ****  ****    0 ROOT


##########                                Name:    ZINC000050607728
##########                DOCK_Rotatable_Bonds:                  10
##########                         Heavy_Atoms:                  31
##########                    Molecular_Weight:             416.476
##########                DOCK_Rotatable_Bonds:                  10
##########                       Formal_Charge:          -0.0199995
##########                     HBond_Acceptors:                   6
##########                        HBond_Donors:                   1
##########                         Heavy_Atoms:                  31
##########                          Grid_Score:          -38.635555
##########                     Grid_vdw_energy:          -36.694088
##########                      Grid_es_energy:           -1.941469
##########           Internal_energy_repulsive:           13.641436

@<TRIPOS>MOLECULE
ZINC000050607728
 55 57 1 0 0
SMALL
USER_CHARGES


@<TRIPOS>ATOM
      1 C1        -11.8459   -0.2827   53.2079 C.3     1  ZINC000050607728    0.0800
      2 N2        -10.9287   -1.2659   52.6263 N.am    1  ZINC000050607728   -0.6200
      3 C3        -11.4577   -2.4784   51.9968 C.3     1  ZINC000050607728    0.0700
      4 C4         -9.5983   -1.0550   52.6704 C.2     1  ZINC000050607728    0.5600
      5 O5         -8.8373   -1.8708   52.1879 O.2     1  ZINC000050607728   -0.5300
      6 C6         -9.0644    0.1685   53.3056 C.ar    1  ZINC000050607728   -0.1400
      7 C7         -9.2874    0.4084   54.6623 C.ar    1  ZINC000050607728   -0.0800
      8 C8         -8.7860    1.5519   55.2492 C.ar    1  ZINC000050607728   -0.1300
      9 C9         -8.0641    2.4602   54.4958 C.ar    1  ZINC000050607728   -0.0700
     10 C10        -7.8398    2.2288   53.1500 C.ar    1  ZINC000050607728   -0.1100
     11 C11        -7.0527    3.2239   52.3368 C.3     1  ZINC000050607728    0.1100
     12 O12        -5.6947    3.2984   52.8455 O.3     1  ZINC000050607728   -0.3400
     13 C13        -4.8420    4.1020   52.1906 C.2     1  ZINC000050607728    0.4700
     14 O14        -5.2662    4.9719   51.4673 O.2     1  ZINC000050607728   -0.5000
     15 C15        -3.3555    3.9191   52.3576 C.3     1  ZINC000050607728    0.2000
     16 H16        -2.8586    4.8855   52.2722 H       1  ZINC000050607728    0.1400
     17 N17        -3.0794    3.3429   53.6760 N.am    1  ZINC000050607728   -0.7100
     18 C18        -1.9266    3.6339   54.3106 C.2     1  ZINC000050607728    0.5700
     19 O19        -1.1166    4.3757   53.7899 O.2     1  ZINC000050607728   -0.5200
     20 C20        -1.6473    3.0511   55.6403 C.ar    1  ZINC000050607728   -0.1400
     21 C21        -2.6042    2.2550   56.2718 C.ar    1  ZINC000050607728   -0.0800
     22 C22        -2.3370    1.7138   57.5123 C.ar    1  ZINC000050607728   -0.1300
     23 C23        -1.1238    1.9587   58.1306 C.ar    1  ZINC000050607728   -0.0900
     24 C24        -0.1711    2.7473   57.5103 C.ar    1  ZINC000050607728   -0.1300
     25 C25        -0.4232    3.2896   56.2670 C.ar    1  ZINC000050607728   -0.0600
     26 C26        -2.8398    2.9928   51.2866 C.ar    1  ZINC000050607728   -0.1000
     27 C27        -1.7139    3.3340   50.5611 C.ar    1  ZINC000050607728   -0.1000
     28 C28        -1.2409    2.4842   49.5786 C.ar    1  ZINC000050607728   -0.1200
     29 C29        -1.8937    1.2932   49.3220 C.ar    1  ZINC000050607728   -0.1100
     30 C30        -3.0194    0.9515   50.0481 C.ar    1  ZINC000050607728   -0.1200
     31 C31        -3.4898    1.7992   51.0335 C.ar    1  ZINC000050607728   -0.0800
     32 C32        -8.3302    1.0864   52.5525 C.ar    1  ZINC000050607728   -0.0400
     33 H33       -12.0256   -0.5281   54.2546 H       1  ZINC000050607728    0.0600
     34 H34       -11.4044    0.7116   53.1386 H       1  ZINC000050607728    0.0800
     35 H35       -12.7900   -0.2998   52.6634 H       1  ZINC000050607728    0.0700
     36 H36       -11.7163   -2.2660   50.9595 H       1  ZINC000050607728    0.0600
     37 H37       -10.7027   -3.2639   52.0295 H       1  ZINC000050607728    0.0800
     38 H38       -12.3478   -2.8075   52.5331 H       1  ZINC000050607728    0.0700
     39 H39        -9.8515   -0.2997   55.2514 H       1  ZINC000050607728    0.1400
     40 H40        -8.9579    1.7387   56.2990 H       1  ZINC000050607728    0.1400
     41 H41        -7.6742    3.3541   54.9598 H       1  ZINC000050607728    0.1300
     42 H42        -7.0333    2.9069   51.2942 H       1  ZINC000050607728    0.0900
     43 H43        -7.5223    4.2049   52.4096 H       1  ZINC000050607728    0.0900
     44 H44        -3.7263    2.7519   54.0921 H       1  ZINC000050607728    0.4100
     45 H45        -3.5519    2.0636   55.7905 H       1  ZINC000050607728    0.1300
     46 H46        -3.0767    1.0977   58.0020 H       1  ZINC000050607728    0.1300
     47 H47        -0.9197    1.5329   59.1019 H       1  ZINC000050607728    0.1300
     48 H48         0.7738    2.9350   57.9985 H       1  ZINC000050607728    0.1300
     49 H49         0.3216    3.9046   55.7838 H       1  ZINC000050607728    0.1400
     50 H50        -1.2037    4.2645   50.7616 H       1  ZINC000050607728    0.1200
     51 H51        -0.3614    2.7511   49.0114 H       1  ZINC000050607728    0.1200
     52 H52        -1.5247    0.6296   48.5539 H       1  ZINC000050607728    0.1200
     53 H53        -3.5297    0.0210   49.8474 H       1  ZINC000050607728    0.1300
     54 H54        -4.3692    1.5324   51.6007 H       1  ZINC000050607728    0.1300
     55 H55        -8.1542    0.9067   51.5022 H       1  ZINC000050607728    0.1300
@<TRIPOS>BOND
     1     1     2    1
     2     1    33    1
     3     1    34    1
     4     1    35    1
     5     2     3    1
     6     2     4   am
     7     3    36    1
     8     3    37    1
     9     3    38    1
    10     4     5    2
    11     4     6    1
    12     6    32   ar
    13     6     7   ar
    14     7     8   ar
    15     7    39    1
    16     8     9   ar
    17     8    40    1
    18     9    10   ar
    19     9    41    1
    20    10    11    1
    21    10    32   ar
    22    11    12    1
    23    11    42    1
    24    11    43    1
    25    12    13    1
    26    13    14    2
    27    13    15    1
    28    15    16    1
    29    15    17    1
    30    15    26    1
    31    17    18   am
    32    17    44    1
    33    18    19    2
    34    18    20    1
    35    20    25   ar
    36    20    21   ar
    37    21    22   ar
    38    21    45    1
    39    22    23   ar
    40    22    46    1
    41    23    24   ar
    42    23    47    1
    43    24    25   ar
    44    24    48    1
    45    25    49    1
    46    26    31   ar
    47    26    27   ar
    48    27    28   ar
    49    27    50    1
    50    28    29   ar
    51    28    51    1
    52    29    30   ar
    53    29    52    1
    54    30    31   ar
    55    30    53    1
    56    31    54    1
    57    32    55    1
@<TRIPOS>SUBSTRUCTURE
     1 ZINC000050607728        1 TEMP              0 ****  ****    0 ROOT


##########                                Name:    ZINC000547864253
##########                DOCK_Rotatable_Bonds:                   6
##########                         Heavy_Atoms:                  30
##########                    Molecular_Weight:             422.548
##########                DOCK_Rotatable_Bonds:                   6
##########                       Formal_Charge:           0.0300002
##########                     HBond_Acceptors:                   6
##########                        HBond_Donors:                   2
##########                         Heavy_Atoms:                  30
##########                          Grid_Score:          -38.602516
##########                     Grid_vdw_energy:          -35.150070
##########                      Grid_es_energy:           -3.452444
##########           Internal_energy_repulsive:           12.573592

@<TRIPOS>MOLECULE
ZINC000547864253
 56 60 1 0 0
SMALL
USER_CHARGES


@<TRIPOS>ATOM
      1 O1         -7.7008    4.3429   54.2390 O.2     1  ZINC000547864253   -0.5300
      2 C2         -6.8385    3.4910   54.2790 C.2     1  ZINC000547864253    0.5400
      3 N3         -7.1161    2.2747   54.7892 N.am    1  ZINC000547864253   -0.7200
      4 C4         -8.4577    1.9839   55.3010 C.3     1  ZINC000547864253    0.1300
      5 C5         -9.2638    1.2474   54.2293 C.3     1  ZINC000547864253    0.0200
      6 H6         -8.5825    0.7305   53.5534 H       1  ZINC000547864253    0.0900
      7 C7        -10.1756    0.2442   54.8874 C.2     1  ZINC000547864253   -0.1600
      8 C8        -10.6807    0.3184   56.1289 C.2     1  ZINC000547864253    0.0600
      9 N9        -11.4664   -0.7737   56.3789 N.pl3   1  ZINC000547864253   -0.5900
     10 C10       -11.4865   -1.5983   55.2764 C.ar    1  ZINC000547864253    0.1000
     11 C11       -12.1107   -2.8095   54.9976 C.ar    1  ZINC000547864253   -0.1300
     12 C12       -11.9319   -3.4045   53.7677 C.ar    1  ZINC000547864253   -0.1000
     13 C13       -11.1342   -2.8072   52.8018 C.ar    1  ZINC000547864253   -0.1400
     14 C14       -10.5116   -1.6171   53.0544 C.ar    1  ZINC000547864253   -0.0700
     15 C15       -10.6840   -0.9937   54.2914 C.ar    1  ZINC000547864253   -0.1000
     16 C16       -10.0878    2.2397   53.4499 C.ar    1  ZINC000547864253   -0.0700
     17 C17        -9.8641    2.4123   52.0968 C.ar    1  ZINC000547864253   -0.1100
     18 C18       -10.6199    3.3225   51.3818 C.ar    1  ZINC000547864253   -0.1200
     19 C19       -11.5996    4.0599   52.0200 C.ar    1  ZINC000547864253   -0.1200
     20 C20       -11.8240    3.8867   53.3730 C.ar    1  ZINC000547864253   -0.1100
     21 C21       -11.0711    2.9733   54.0870 C.ar    1  ZINC000547864253   -0.1200
     22 C22        -5.4585    3.7901   53.7525 C.3     1  ZINC000547864253   -0.1700
     23 H23        -4.6679    3.8294   54.5018 H       1  ZINC000547864253    0.1400
     24 C24        -5.3487    4.7409   52.5591 C.3     1  ZINC000547864253   -0.1300
     25 C25        -5.0954    3.2424   52.3696 C.3     1  ZINC000547864253   -0.1400
     26 C26        -3.6497    2.7957   52.1485 C.3     1  ZINC000547864253   -0.0700
     27 C27        -3.2638    3.0041   50.6825 C.3     1  ZINC000547864253   -0.6000
     28 S28        -4.3540    2.0042   49.6300 S.o2    1  ZINC000547864253    2.4200
     29 O29        -4.1253    2.3589   48.2730 O.2     1  ZINC000547864253   -0.9400
     30 O30        -4.2393    0.6430   50.0211 O.2     1  ZINC000547864253   -0.9300
     31 C31        -5.9924    2.6140   50.1205 C.3     1  ZINC000547864253   -0.6000
     32 C32        -6.1643    2.4362   51.6306 C.3     1  ZINC000547864253   -0.0700
     33 H33        -6.4277    1.5920   54.8175 H       1  ZINC000547864253    0.4000
     34 H34        -8.3796    1.3590   56.1905 H       1  ZINC000547864253    0.0800
     35 H35        -8.9596    2.9174   55.5557 H       1  ZINC000547864253    0.0700
     36 H36       -10.4944    1.1210   56.8271 H       1  ZINC000547864253    0.1700
     37 H37       -11.9388   -0.9419   57.2093 H       1  ZINC000547864253    0.4200
     38 H38       -12.7332   -3.2824   55.7429 H       1  ZINC000547864253    0.1200
     39 H39       -12.4171   -4.3452   53.5534 H       1  ZINC000547864253    0.1300
     40 H40       -11.0042   -3.2868   51.8429 H       1  ZINC000547864253    0.1200
     41 H41        -9.8923   -1.1582   52.2979 H       1  ZINC000547864253    0.1200
     42 H42        -9.0985    1.8362   51.5982 H       1  ZINC000547864253    0.1200
     43 H43       -10.4446    3.4579   50.3248 H       1  ZINC000547864253    0.1200
     44 H44       -12.1897    4.7716   51.4616 H       1  ZINC000547864253    0.1200
     45 H45       -12.5892    4.4630   53.8716 H       1  ZINC000547864253    0.1200
     46 H46       -11.2463    2.8379   55.1440 H       1  ZINC000547864253    0.1200
     47 H47        -6.2745    5.1501   52.1547 H       1  ZINC000547864253    0.1100
     48 H48        -4.4855    5.4056   52.5231 H       1  ZINC000547864253    0.1100
     49 H49        -2.9873    3.3825   52.7849 H       1  ZINC000547864253    0.0900
     50 H50        -3.5535    1.7399   52.4022 H       1  ZINC000547864253    0.0900
     51 H51        -3.3731    4.0572   50.4234 H       1  ZINC000547864253    0.1400
     52 H52        -2.2291    2.6965   50.5310 H       1  ZINC000547864253    0.1400
     53 H53        -6.0789    3.6704   49.8660 H       1  ZINC000547864253    0.1400
     54 H54        -6.7632    2.0483   49.5970 H       1  ZINC000547864253    0.1400
     55 H55        -6.0634    1.3811   51.8852 H       1  ZINC000547864253    0.0900
     56 H56        -7.1527    2.7871   51.9268 H       1  ZINC000547864253    0.0900
@<TRIPOS>BOND
     1     1     2    2
     2     2     3   am
     3     2    22    1
     4     3     4    1
     5     3    33    1
     6     4     5    1
     7     4    34    1
     8     4    35    1
     9     5     6    1
    10     5     7    1
    11     5    16    1
    12     7    15    1
    13     7     8    2
    14     8     9    1
    15     8    36    1
    16     9    10    1
    17     9    37    1
    18    10    15   ar
    19    10    11   ar
    20    11    12   ar
    21    11    38    1
    22    12    13   ar
    23    12    39    1
    24    13    14   ar
    25    13    40    1
    26    14    15   ar
    27    14    41    1
    28    16    21   ar
    29    16    17   ar
    30    17    18   ar
    31    17    42    1
    32    18    19   ar
    33    18    43    1
    34    19    20   ar
    35    19    44    1
    36    20    21   ar
    37    20    45    1
    38    21    46    1
    39    22    23    1
    40    22    25    1
    41    22    24    1
    42    24    25    1
    43    24    47    1
    44    24    48    1
    45    25    32    1
    46    25    26    1
    47    26    27    1
    48    26    49    1
    49    26    50    1
    50    27    28    1
    51    27    51    1
    52    27    52    1
    53    28    29    2
    54    28    30    2
    55    28    31    1
    56    31    32    1
    57    31    53    1
    58    31    54    1
    59    32    55    1
    60    32    56    1
@<TRIPOS>SUBSTRUCTURE
     1 ZINC000547864253        1 TEMP              0 ****  ****    0 ROOT


##########                                Name:    ZINC000770850676
##########                DOCK_Rotatable_Bonds:                  13
##########                         Heavy_Atoms:                  30
##########                    Molecular_Weight:             412.486
##########                DOCK_Rotatable_Bonds:                  13
##########                       Formal_Charge:          -0.0299994
##########                     HBond_Acceptors:                   7
##########                        HBond_Donors:                   3
##########                         Heavy_Atoms:                  30
##########                          Grid_Score:          -38.586910
##########                     Grid_vdw_energy:          -38.505341
##########                      Grid_es_energy:           -0.081571
##########           Internal_energy_repulsive:           18.156269

@<TRIPOS>MOLECULE
ZINC000770850676
 58 60 1 0 0
SMALL
USER_CHARGES


@<TRIPOS>ATOM
      1 O1         -7.9704    0.9653   54.8153 O.2     1  ZINC000770850676   -0.5300
      2 C2         -8.2769    1.6927   53.8945 C.2     1  ZINC000770850676    0.5100
      3 N3         -7.7782    2.9431   53.8287 N.am    1  ZINC000770850676   -0.7000
      4 C4         -6.8708    3.4257   54.8727 C.3     1  ZINC000770850676    0.1600
      5 H5         -6.8398    2.7041   55.6891 H       1  ZINC000770850676    0.1000
      6 C6         -7.3708    4.7718   55.4007 C.3     1  ZINC000770850676    0.0600
      7 O7         -8.6673    4.6053   55.9781 O.3     1  ZINC000770850676   -0.5700
      8 C8         -5.4668    3.5963   54.2893 C.3     1  ZINC000770850676   -0.1500
      9 C9         -4.4653    3.8133   55.4254 C.3     1  ZINC000770850676    0.1500
     10 H10        -4.6769    4.7612   55.9201 H       1  ZINC000770850676    0.1100
     11 O11        -4.5784    2.7472   56.3703 O.3     1  ZINC000770850676   -0.5400
     12 C12        -3.0670    3.8407   54.8641 C.ar    1  ZINC000770850676   -0.1200
     13 C13        -2.0211    3.2985   55.5873 C.ar    1  ZINC000770850676   -0.1100
     14 C14        -0.7385    3.3237   55.0725 C.ar    1  ZINC000770850676   -0.1200
     15 C15        -0.5018    3.8905   53.8341 C.ar    1  ZINC000770850676   -0.1200
     16 C16        -1.5478    4.4319   53.1105 C.ar    1  ZINC000770850676   -0.1200
     17 C17        -2.8311    4.4029   53.6234 C.ar    1  ZINC000770850676   -0.1100
     18 C18        -9.2103    1.1963   52.8205 C.3     1  ZINC000770850676    0.1400
     19 H19        -9.0758    1.7836   51.9122 H       1  ZINC000770850676    0.1000
     20 C20       -10.6718    1.3050   53.3041 C.3     1  ZINC000770850676   -0.1200
     21 C21       -11.3227    0.0163   52.7355 C.3     1  ZINC000770850676   -0.1300
     22 C22       -10.1598   -0.9997   52.8583 C.3     1  ZINC000770850676    0.1000
     23 N23        -8.9434   -0.2226   52.5427 N.am    1  ZINC000770850676   -0.5900
     24 C24        -7.7843   -0.7313   52.0799 C.2     1  ZINC000770850676    0.6700
     25 O25        -7.6791   -1.9264   51.8876 O.2     1  ZINC000770850676   -0.5600
     26 O26        -6.7430    0.0850   51.8305 O.3     1  ZINC000770850676   -0.3600
     27 C27        -6.1580    0.0204   50.5031 C.3     1  ZINC000770850676    0.1300
     28 C28        -5.0929    1.0783   50.3716 C.ar    1  ZINC000770850676   -0.1000
     29 C29        -5.3873    2.3961   50.6680 C.ar    1  ZINC000770850676   -0.0900
     30 C30        -4.4103    3.3665   50.5473 C.ar    1  ZINC000770850676   -0.1200
     31 C31        -3.1388    3.0192   50.1306 C.ar    1  ZINC000770850676   -0.1100
     32 C32        -2.8442    1.7014   49.8350 C.ar    1  ZINC000770850676   -0.1200
     33 C33        -3.8200    0.7302   49.9599 C.ar    1  ZINC000770850676   -0.0900
     34 H34        -8.0202    3.5235   53.0902 H       1  ZINC000770850676    0.4000
     35 H35        -6.6808    5.1440   56.1580 H       1  ZINC000770850676    0.0500
     36 H36        -7.4280    5.4858   54.5789 H       1  ZINC000770850676    0.0500
     37 H37        -8.6934    3.9756   56.7115 H       1  ZINC000770850676    0.3800
     38 H38        -5.1942    2.7007   53.7308 H       1  ZINC000770850676    0.0800
     39 H39        -5.4526    4.4585   53.6227 H       1  ZINC000770850676    0.0900
     40 H40        -3.9993    2.8400   57.1391 H       1  ZINC000770850676    0.3700
     41 H41        -2.2060    2.8556   56.5549 H       1  ZINC000770850676    0.1200
     42 H42         0.0788    2.9007   55.6379 H       1  ZINC000770850676    0.1200
     43 H43         0.5004    3.9109   53.4322 H       1  ZINC000770850676    0.1200
     44 H44        -1.3629    4.8751   52.1431 H       1  ZINC000770850676    0.1200
     45 H45        -3.6484    4.8259   53.0581 H       1  ZINC000770850676    0.1200
     46 H46       -10.7181    1.3122   54.3931 H       1  ZINC000770850676    0.0800
     47 H47       -11.1498    2.1931   52.8907 H       1  ZINC000770850676    0.1000
     48 H48       -12.1753   -0.2907   53.3413 H       1  ZINC000770850676    0.0900
     49 H49       -11.6141    0.1526   51.6941 H       1  ZINC000770850676    0.0800
     50 H50       -10.1065   -1.3946   53.8728 H       1  ZINC000770850676    0.0700
     51 H51       -10.2870   -1.8104   52.1409 H       1  ZINC000770850676    0.0900
     52 H52        -5.7141   -0.9633   50.3492 H       1  ZINC000770850676    0.0800
     53 H53        -6.9331    0.1901   49.7558 H       1  ZINC000770850676    0.0800
     54 H54        -6.3807    2.6674   50.9936 H       1  ZINC000770850676    0.1200
     55 H55        -4.6405    4.3962   50.7782 H       1  ZINC000770850676    0.1300
     56 H56        -2.3757    3.7776   50.0356 H       1  ZINC000770850676    0.1300
     57 H57        -1.8510    1.4302   49.5091 H       1  ZINC000770850676    0.1300
     58 H58        -3.5899   -0.2993   49.7289 H       1  ZINC000770850676    0.1200
@<TRIPOS>BOND
     1     1     2    2
     2     2     3   am
     3     2    18    1
     4     3     4    1
     5     3    34    1
     6     4     5    1
     7     4     6    1
     8     4     8    1
     9     6     7    1
    10     6    35    1
    11     6    36    1
    12     7    37    1
    13     8     9    1
    14     8    38    1
    15     8    39    1
    16     9    10    1
    17     9    11    1
    18     9    12    1
    19    11    40    1
    20    12    17   ar
    21    12    13   ar
    22    13    14   ar
    23    13    41    1
    24    14    15   ar
    25    14    42    1
    26    15    16   ar
    27    15    43    1
    28    16    17   ar
    29    16    44    1
    30    17    45    1
    31    18    19    1
    32    18    23    1
    33    18    20    1
    34    20    21    1
    35    20    46    1
    36    20    47    1
    37    21    22    1
    38    21    48    1
    39    21    49    1
    40    22    23    1
    41    22    50    1
    42    22    51    1
    43    23    24   am
    44    24    25    2
    45    24    26    1
    46    26    27    1
    47    27    28    1
    48    27    52    1
    49    27    53    1
    50    28    33   ar
    51    28    29   ar
    52    29    30   ar
    53    29    54    1
    54    30    31   ar
    55    30    55    1
    56    31    32   ar
    57    31    56    1
    58    32    33   ar
    59    32    57    1
    60    33    58    1
@<TRIPOS>SUBSTRUCTURE
     1 ZINC000770850676        1 TEMP              0 ****  ****    0 ROOT


##########                                Name:    ZINC001169875900
##########                DOCK_Rotatable_Bonds:                   9
##########                         Heavy_Atoms:                  24
##########                    Molecular_Weight:             329.399
##########                DOCK_Rotatable_Bonds:                   9
##########                       Formal_Charge:          -0.0500002
##########                     HBond_Acceptors:                   6
##########                        HBond_Donors:                   1
##########                         Heavy_Atoms:                  24
##########                          Grid_Score:          -38.569931
##########                     Grid_vdw_energy:          -37.709961
##########                      Grid_es_energy:           -0.859972
##########           Internal_energy_repulsive:            8.070002

@<TRIPOS>MOLECULE
ZINC001169875900
 47 48 1 0 0
SMALL
USER_CHARGES


@<TRIPOS>ATOM
      1 C1         -2.1998    3.4069   50.4336 C.3     1  ZINC001169875900   -0.1500
      2 C2         -2.4648    2.0098   50.9982 C.3     1  ZINC001169875900   -0.1300
      3 C3         -3.3474    1.2254   50.0253 C.3     1  ZINC001169875900    0.0700
      4 O4         -4.6455    1.8205   49.9740 O.3     1  ZINC001169875900   -0.3100
      5 C5         -5.6540    1.1540   50.5925 C.ar    1  ZINC001169875900    0.2700
      6 N6         -5.8867   -0.1103   50.2845 N.ar    1  ZINC001169875900   -0.5000
      7 C7         -6.8594   -0.7957   50.8551 C.ar    1  ZINC001169875900    0.0600
      8 C8         -7.6741   -0.2081   51.8111 C.ar    1  ZINC001169875900    0.1400
      9 N9         -8.7044   -0.9410   52.4120 N.pl3   1  ZINC001169875900   -0.7400
     10 C10        -9.7818   -0.2450   53.1197 C.3     1  ZINC001169875900    0.1800
     11 C11       -11.0232   -1.0995   53.1100 C.ar    1  ZINC001169875900    0.1000
     12 C12       -11.3013   -1.9131   54.1968 C.ar    1  ZINC001169875900   -0.1200
     13 C13       -12.4442   -2.6975   54.1837 C.ar    1  ZINC001169875900   -0.0800
     14 C14       -13.2735   -2.6388   53.0750 C.ar    1  ZINC001169875900   -0.1000
     15 C15       -12.9316   -1.7980   52.0177 C.ar    1  ZINC001169875900    0.0900
     16 C16       -13.8071   -1.7238   50.8259 C.2     1  ZINC001169875900    0.5200
     17 O17       -14.8078   -2.4088   50.7640 O.2     1  ZINC001169875900   -0.5000
     18 O18       -13.4936   -0.8965   49.8105 O.3     1  ZINC001169875900   -0.3300
     19 C19       -14.3294   -0.9617   48.6250 C.3     1  ZINC001169875900    0.0600
     20 C20       -13.8425    0.0653   47.6007 C.3     1  ZINC001169875900   -0.1500
     21 N21       -11.8302   -1.0590   52.0726 N.ar    1  ZINC001169875900   -0.4200
     22 C22        -7.4544    1.1219   52.1655 C.ar    1  ZINC001169875900   -0.1200
     23 C23        -6.4251    1.8072   51.5452 C.ar    1  ZINC001169875900   -0.1000
     24 C24        -6.1480    3.2468   51.8945 C.3     1  ZINC001169875900   -0.1000
     25 H25        -3.1466    3.9300   50.2993 H       1  ZINC001169875900    0.0600
     26 H26        -1.5711    3.9657   51.1268 H       1  ZINC001169875900    0.0600
     27 H27        -1.6931    3.3203   49.4725 H       1  ZINC001169875900    0.0600
     28 H28        -2.9716    2.0964   51.9594 H       1  ZINC001169875900    0.0700
     29 H29        -1.5180    1.4866   51.1325 H       1  ZINC001169875900    0.0700
     30 H30        -3.4341    0.1932   50.3647 H       1  ZINC001169875900    0.0600
     31 H31        -2.8993    1.2447   49.0318 H       1  ZINC001169875900    0.0600
     32 H32        -7.0229   -1.8257   50.5742 H       1  ZINC001169875900    0.1500
     33 H33        -8.7048   -1.9095   52.3597 H       1  ZINC001169875900    0.4000
     34 H34        -9.4782   -0.0571   54.1495 H       1  ZINC001169875900    0.0800
     35 H35        -9.9895    0.7030   52.6234 H       1  ZINC001169875900    0.0800
     36 H36       -10.6339   -1.9360   55.0456 H       1  ZINC001169875900    0.1500
     37 H37       -12.6829   -3.3395   55.0188 H       1  ZINC001169875900    0.1500
     38 H38       -14.1720   -3.2366   53.0309 H       1  ZINC001169875900    0.1500
     39 H39       -14.2709   -1.9609   48.1937 H       1  ZINC001169875900    0.0700
     40 H40       -15.3622   -0.7429   48.8962 H       1  ZINC001169875900    0.0700
     41 H41       -13.9011    1.0646   48.0320 H       1  ZINC001169875900    0.0700
     42 H42       -12.8098   -0.1536   47.3295 H       1  ZINC001169875900    0.0700
     43 H43       -14.4700    0.0163   46.7107 H       1  ZINC001169875900    0.0800
     44 H44        -8.0731    1.6060   52.9066 H       1  ZINC001169875900    0.1400
     45 H45        -5.4340    3.2901   52.7170 H       1  ZINC001169875900    0.0700
     46 H46        -7.0765    3.7333   52.1934 H       1  ZINC001169875900    0.0700
     47 H47        -5.7330    3.7580   51.0258 H       1  ZINC001169875900    0.0700
@<TRIPOS>BOND
     1     1     2    1
     2     1    25    1
     3     1    26    1
     4     1    27    1
     5     2     3    1
     6     2    28    1
     7     2    29    1
     8     3     4    1
     9     3    30    1
    10     3    31    1
    11     4     5    1
    12     5    23   ar
    13     5     6   ar
    14     6     7   ar
    15     7     8   ar
    16     7    32    1
    17     8     9    1
    18     8    22   ar
    19     9    10    1
    20     9    33    1
    21    10    11    1
    22    10    34    1
    23    10    35    1
    24    11    21   ar
    25    11    12   ar
    26    12    13   ar
    27    12    36    1
    28    13    14   ar
    29    13    37    1
    30    14    15   ar
    31    14    38    1
    32    15    16    1
    33    15    21   ar
    34    16    17    2
    35    16    18    1
    36    18    19    1
    37    19    20    1
    38    19    39    1
    39    19    40    1
    40    20    41    1
    41    20    42    1
    42    20    43    1
    43    22    23   ar
    44    22    44    1
    45    23    24    1
    46    24    45    1
    47    24    46    1
    48    24    47    1
@<TRIPOS>SUBSTRUCTURE
     1 ZINC001169875900        1 TEMP              0 ****  ****    0 ROOT


##########                                Name:    ZINC000948289723
##########                DOCK_Rotatable_Bonds:                   6
##########                         Heavy_Atoms:                  24
##########                    Molecular_Weight:             331.415
##########                DOCK_Rotatable_Bonds:                   6
##########                       Formal_Charge:           0.0599999
##########                     HBond_Acceptors:                   6
##########                        HBond_Donors:                   1
##########                         Heavy_Atoms:                  24
##########                          Grid_Score:          -38.569866
##########                     Grid_vdw_energy:          -36.911228
##########                      Grid_es_energy:           -1.658638
##########           Internal_energy_repulsive:            6.774669

@<TRIPOS>MOLECULE
ZINC000948289723
 49 52 1 0 0
SMALL
USER_CHARGES


@<TRIPOS>ATOM
      1 C1         -1.7679    2.1787   49.4214 C.3     1  ZINC000948289723   -0.1400
      2 C2         -3.1253    2.7726   49.8033 C.3     1  ZINC000948289723   -0.1100
      3 C3         -4.3158    2.0761   49.1233 C.3     1  ZINC000948289723   -0.1100
      4 C4         -5.0590    2.2116   50.4628 C.3     1  ZINC000948289723   -0.1400
      5 C5         -5.8804    1.0004   50.8225 C.2     1  ZINC000948289723    0.5400
      6 O6         -5.7116   -0.0445   50.2304 O.2     1  ZINC000948289723   -0.5300
      7 N7         -6.8027    1.0785   51.8022 N.am    1  ZINC000948289723   -0.6200
      8 C8         -7.1090    2.2767   52.5971 C.3     1  ZINC000948289723    0.1100
      9 C9         -8.2444    1.9015   53.5726 C.3     1  ZINC000948289723   -0.1100
     10 H10        -7.8407    1.6271   54.5472 H       1  ZINC000948289723    0.1000
     11 C11        -9.2444    3.0516   53.7075 C.3     1  ZINC000948289723   -0.1400
     12 C12        -8.9017    0.6753   52.8857 C.3     1  ZINC000948289723    0.1400
     13 H13        -9.6093    0.9899   52.1187 H       1  ZINC000948289723    0.1200
     14 N14        -9.5510   -0.1930   53.8709 N.am    1  ZINC000948289723   -0.7100
     15 C15       -10.6840   -0.8480   53.5490 C.2     1  ZINC000948289723    0.6100
     16 O16       -11.1663   -0.7196   52.4404 O.2     1  ZINC000948289723   -0.5000
     17 C17       -11.3388   -1.7209   54.5416 C.2     1  ZINC000948289723   -0.0900
     18 C18       -12.3180   -2.6466   54.3037 C.2     1  ZINC000948289723   -0.1400
     19 C19       -12.5836   -3.1929   55.5790 C.2     1  ZINC000948289723    0.0500
     20 C20       -13.5872   -4.2682   55.9071 C.3     1  ZINC000948289723   -0.0900
     21 C21       -13.1143   -5.4339   56.7780 C.3     1  ZINC000948289723   -0.1600
     22 C22       -14.0562   -4.3776   57.3594 C.3     1  ZINC000948289723   -0.1600
     23 N23       -11.7921   -2.5866   56.4152 N.2     1  ZINC000948289723   -0.3300
     24 O24       -11.0897   -1.7719   55.8637 O.3     1  ZINC000948289723    0.1200
     25 C25        -7.6757   -0.0219   52.2500 C.3     1  ZINC000948289723    0.0900
     26 C26        -3.6771    2.2410   51.1367 C.3     1  ZINC000948289723   -0.1200
     27 H27        -1.8582    1.0965   49.3277 H       1  ZINC000948289723    0.0600
     28 H28        -1.4418    2.5998   48.4705 H       1  ZINC000948289723    0.0600
     29 H29        -1.0368    2.4167   50.1940 H       1  ZINC000948289723    0.0600
     30 H30        -3.1494    3.8594   49.7231 H       1  ZINC000948289723    0.0900
     31 H31        -4.7600    2.6592   48.3165 H       1  ZINC000948289723    0.0700
     32 H32        -4.1132    1.0436   48.8388 H       1  ZINC000948289723    0.1000
     33 H33        -5.6144    3.1443   50.5616 H       1  ZINC000948289723    0.1100
     34 H34        -6.2263    2.5859   53.1570 H       1  ZINC000948289723    0.0800
     35 H35        -7.4356    3.0834   51.9409 H       1  ZINC000948289723    0.0800
     36 H36        -9.6581    3.2902   52.7277 H       1  ZINC000948289723    0.0600
     37 H37       -10.0499    2.7558   54.3798 H       1  ZINC000948289723    0.0600
     38 H38        -8.7377    3.9282   54.1112 H       1  ZINC000948289723    0.0700
     39 H39        -9.1655   -0.2964   54.7550 H       1  ZINC000948289723    0.4100
     40 H40       -12.7802   -2.9000   53.3611 H       1  ZINC000948289723    0.1800
     41 H41       -14.3149   -4.4864   55.1254 H       1  ZINC000948289723    0.1300
     42 H42       -13.5308   -6.4194   56.5693 H       1  ZINC000948289723    0.1100
     43 H43       -12.0774   -5.4231   57.1136 H       1  ZINC000948289723    0.1000
     44 H44       -13.6388   -3.6717   58.0774 H       1  ZINC000948289723    0.1000
     45 H45       -15.0922   -4.6680   57.5331 H       1  ZINC000948289723    0.1100
     46 H46        -7.9846   -0.6343   51.4029 H       1  ZINC000948289723    0.0900
     47 H47        -7.1591   -0.6312   52.9915 H       1  ZINC000948289723    0.0800
     48 H48        -3.2999    1.2535   51.4027 H       1  ZINC000948289723    0.0900
     49 H49        -3.6056    2.9570   51.9553 H       1  ZINC000948289723    0.0800
@<TRIPOS>BOND
     1     1     2    1
     2     1    27    1
     3     1    28    1
     4     1    29    1
     5     2    26    1
     6     2     3    1
     7     2    30    1
     8     3     4    1
     9     3    31    1
    10     3    32    1
    11     4     5    1
    12     4    26    1
    13     4    33    1
    14     5     6    2
    15     5     7   am
    16     7    25    1
    17     7     8    1
    18     8     9    1
    19     8    34    1
    20     8    35    1
    21     9    10    1
    22     9    11    1
    23     9    12    1
    24    11    36    1
    25    11    37    1
    26    11    38    1
    27    12    13    1
    28    12    14    1
    29    12    25    1
    30    14    15   am
    31    14    39    1
    32    15    16    2
    33    15    17    1
    34    17    24    1
    35    17    18    2
    36    18    19    1
    37    18    40    1
    38    19    20    1
    39    19    23    2
    40    20    22    1
    41    20    21    1
    42    20    41    1
    43    21    22    1
    44    21    42    1
    45    21    43    1
    46    22    44    1
    47    22    45    1
    48    23    24    1
    49    25    46    1
    50    25    47    1
    51    26    48    1
    52    26    49    1
@<TRIPOS>SUBSTRUCTURE
     1 ZINC000948289723        1 TEMP              0 ****  ****    0 ROOT


##########                                Name:    ZINC000675319328
##########                DOCK_Rotatable_Bonds:                   7
##########                         Heavy_Atoms:                  26
##########                    Molecular_Weight:             363.475
##########                DOCK_Rotatable_Bonds:                   7
##########                       Formal_Charge:          -0.0200007
##########                     HBond_Acceptors:                   6
##########                        HBond_Donors:                   1
##########                         Heavy_Atoms:                  26
##########                          Grid_Score:          -38.542435
##########                     Grid_vdw_energy:          -37.779808
##########                      Grid_es_energy:           -0.762628
##########           Internal_energy_repulsive:           19.947386

@<TRIPOS>MOLECULE
ZINC000675319328
 56 58 1 0 0
SMALL
USER_CHARGES


@<TRIPOS>ATOM
      1 C1         -7.9275    2.1092   54.1409 C.3     1  ZINC000675319328   -0.1600
      2 C2         -7.9887    0.8809   53.2309 C.3     1  ZINC000675319328    0.1600
      3 H3         -7.2956    0.1231   53.5963 H       1  ZINC000675319328    0.0900
      4 C4         -7.6010    1.2819   51.8061 C.3     1  ZINC000675319328   -0.1200
      5 C5         -6.0825    1.1871   51.6449 C.3     1  ZINC000675319328   -0.1200
      6 H6         -5.6616    0.4798   52.3596 H       1  ZINC000675319328    0.0800
      7 C7         -5.7046    0.7941   50.1907 C.3     1  ZINC000675319328   -0.1500
      8 C8         -4.3034    1.4435   50.0653 C.3     1  ZINC000675319328    0.0500
      9 O9         -4.3920    2.6724   50.8038 O.3     1  ZINC000675319328   -0.3900
     10 C10        -5.4263    2.5763   51.7952 C.3     1  ZINC000675319328    0.0500
     11 N11        -9.3499    0.3392   53.2324 N.am    1  ZINC000675319328   -0.7400
     12 C12        -9.5904   -0.8805   52.7119 C.2     1  ZINC000675319328    0.7000
     13 O13        -8.6776   -1.5312   52.2410 O.2     1  ZINC000675319328   -0.5900
     14 N14       -10.8426   -1.3788   52.7133 N.am    1  ZINC000675319328   -0.6200
     15 C15       -11.0747   -2.7174   52.1361 C.3     1  ZINC000675319328    0.1300
     16 C16       -12.0456   -3.5384   53.0012 C.3     1  ZINC000675319328   -0.1300
     17 C17       -11.7436   -3.3048   54.4651 C.3     1  ZINC000675319328    0.0700
     18 N18       -12.5753   -2.2073   54.9559 N.3     1  ZINC000675319328   -0.5500
     19 C19       -12.9823   -2.4373   56.3486 C.3     1  ZINC000675319328    0.1000
     20 C20       -11.7658   -2.7447   57.1833 C.ar    1  ZINC000675319328   -0.0900
     21 C21       -11.4537   -4.0555   57.4925 C.ar    1  ZINC000675319328   -0.0900
     22 C22       -10.3383   -4.3385   58.2579 C.ar    1  ZINC000675319328   -0.1500
     23 C23        -9.5332   -3.3089   58.7146 C.ar    1  ZINC000675319328    0.1000
     24 F24        -8.4424   -3.5845   59.4626 F       1  ZINC000675319328   -0.1400
     25 C25        -9.8466   -1.9965   58.4038 C.ar    1  ZINC000675319328   -0.1500
     26 C26       -10.9598   -1.7161   57.6342 C.ar    1  ZINC000675319328   -0.0700
     27 C27       -12.0556   -0.9024   54.7886 C.3     1  ZINC000675319328    0.0500
     28 C28       -11.9087   -0.5827   53.2867 C.3     1  ZINC000675319328    0.1100
     29 H29        -8.2036    1.8235   55.1560 H       1  ZINC000675319328    0.0600
     30 H30        -6.9148    2.5123   54.1398 H       1  ZINC000675319328    0.0700
     31 H31        -8.6205    2.8671   53.7755 H       1  ZINC000675319328    0.0500
     32 H32        -8.0844    0.6112   51.0957 H       1  ZINC000675319328    0.0700
     33 H33        -7.9234    2.3056   51.6165 H       1  ZINC000675319328    0.0900
     34 H34        -5.6472   -0.2885   50.0785 H       1  ZINC000675319328    0.0800
     35 H35        -6.4029    1.2251   49.4732 H       1  ZINC000675319328    0.0800
     36 H36        -3.5448    0.7937   50.5017 H       1  ZINC000675319328    0.0600
     37 H37        -4.0726    1.6464   49.0195 H       1  ZINC000675319328    0.0900
     38 H38        -6.1714    3.3543   51.6288 H       1  ZINC000675319328    0.0700
     39 H39        -4.9952    2.6823   52.7907 H       1  ZINC000675319328    0.0700
     40 H40       -10.0780    0.8583   53.6081 H       1  ZINC000675319328    0.3900
     41 H41       -11.4939   -2.6070   51.1360 H       1  ZINC000675319328    0.0600
     42 H42       -10.1239   -3.2460   52.0670 H       1  ZINC000675319328    0.0900
     43 H43       -13.0696   -3.2312   52.7886 H       1  ZINC000675319328    0.0800
     44 H44       -11.9298   -4.5974   52.7714 H       1  ZINC000675319328    0.0800
     45 H45       -11.9630   -4.2099   55.0314 H       1  ZINC000675319328    0.0700
     46 H46       -10.6914   -3.0457   54.5832 H       1  ZINC000675319328    0.0400
     47 H47       -13.4726   -1.5442   56.7360 H       1  ZINC000675319328    0.0900
     48 H48       -13.6740   -3.2787   56.3908 H       1  ZINC000675319328    0.0400
     49 H49       -12.0818   -4.8584   57.1361 H       1  ZINC000675319328    0.1300
     50 H50       -10.0950   -5.3625   58.5000 H       1  ZINC000675319328    0.1400
     51 H51        -9.2196   -1.1924   58.7598 H       1  ZINC000675319328    0.1400
     52 H52       -11.2043   -0.6926   57.3914 H       1  ZINC000675319328    0.1300
     53 H53       -12.7319   -0.1819   55.2487 H       1  ZINC000675319328    0.0900
     54 H54       -11.0792   -0.8376   55.2687 H       1  ZINC000675319328    0.0300
     55 H55       -11.6759    0.4749   53.1621 H       1  ZINC000675319328    0.0700
     56 H56       -12.8433   -0.8105   52.7743 H       1  ZINC000675319328    0.0900
@<TRIPOS>BOND
     1     1     2    1
     2     1    29    1
     3     1    30    1
     4     1    31    1
     5     2     3    1
     6     2     4    1
     7     2    11    1
     8     4     5    1
     9     4    32    1
    10     4    33    1
    11     5     6    1
    12     5    10    1
    13     5     7    1
    14     7     8    1
    15     7    34    1
    16     7    35    1
    17     8     9    1
    18     8    36    1
    19     8    37    1
    20     9    10    1
    21    10    38    1
    22    10    39    1
    23    11    12   am
    24    11    40    1
    25    12    13    2
    26    12    14   am
    27    14    28    1
    28    14    15    1
    29    15    16    1
    30    15    41    1
    31    15    42    1
    32    16    17    1
    33    16    43    1
    34    16    44    1
    35    17    18    1
    36    17    45    1
    37    17    46    1
    38    18    19    1
    39    18    27    1
    40    19    20    1
    41    19    47    1
    42    19    48    1
    43    20    26   ar
    44    20    21   ar
    45    21    22   ar
    46    21    49    1
    47    22    23   ar
    48    22    50    1
    49    23    24    1
    50    23    25   ar
    51    25    26   ar
    52    25    51    1
    53    26    52    1
    54    27    28    1
    55    27    53    1
    56    27    54    1
    57    28    55    1
    58    28    56    1
@<TRIPOS>SUBSTRUCTURE
     1 ZINC000675319328        1 TEMP              0 ****  ****    0 ROOT


##########                                Name:    ZINC000751548479
##########                DOCK_Rotatable_Bonds:                   9
##########                         Heavy_Atoms:                  27
##########                    Molecular_Weight:             389.407
##########                DOCK_Rotatable_Bonds:                   9
##########                       Formal_Charge:           0.0199995
##########                     HBond_Acceptors:                   9
##########                        HBond_Donors:                   2
##########                         Heavy_Atoms:                  27
##########                          Grid_Score:          -38.495537
##########                     Grid_vdw_energy:          -37.111485
##########                      Grid_es_energy:           -1.384051
##########           Internal_energy_repulsive:           12.709496

@<TRIPOS>MOLECULE
ZINC000751548479
 43 44 1 0 0
SMALL
USER_CHARGES


@<TRIPOS>ATOM
      1 C1         -8.9658   -0.1241   63.9199 C.3     1  ZINC000751548479   -0.1600
      2 C2         -9.9265   -0.2588   62.7366 C.3     1  ZINC000751548479    0.0800
      3 O3         -9.2496   -0.9225   61.6368 O.3     1  ZINC000751548479   -0.3600
      4 C4         -9.9311   -1.0403   60.4815 C.2     1  ZINC000751548479    0.6500
      5 O5        -11.1244   -0.8130   60.4542 O.2     1  ZINC000751548479   -0.5400
      6 N6         -9.2896   -1.4104   59.3555 N.am    1  ZINC000751548479   -0.6500
      7 C7         -9.9962   -1.5326   58.1573 C.ar    1  ZINC000751548479    0.2000
      8 C8        -10.3112   -0.4022   57.4173 C.ar    1  ZINC000751548479   -0.1000
      9 C9        -11.0097   -0.5212   56.2325 C.ar    1  ZINC000751548479   -0.1000
     10 C10       -11.4029   -1.7730   55.7716 C.ar    1  ZINC000751548479    0.1300
     11 N11       -12.1110   -1.8834   54.5697 N.am    1  ZINC000751548479   -1.0500
     12 S12       -11.3094   -2.2455   53.1666 S.o2    1  ZINC000751548479    2.6800
     13 O13       -10.5686   -3.4308   53.4222 O.2     1  ZINC000751548479   -0.9500
     14 O14       -12.2637   -2.1360   52.1195 O.2     1  ZINC000751548479   -0.9400
     15 C15       -10.1264   -0.9677   52.8973 C.2     1  ZINC000751548479   -0.7500
     16 C16        -9.0224   -1.2210   52.2083 C.2     1  ZINC000751548479    0.0700
     17 C17        -8.0309   -0.1488   51.9808 C.ar    1  ZINC000751548479   -0.1100
     18 C18        -6.8240   -0.4353   51.3415 C.ar    1  ZINC000751548479   -0.0600
     19 C19        -5.9023    0.5691   51.1313 C.ar    1  ZINC000751548479   -0.1600
     20 C20        -6.1729    1.8607   51.5541 C.ar    1  ZINC000751548479    0.1200
     21 F21        -5.2666    2.8408   51.3461 F       1  ZINC000751548479   -0.1300
     22 C22        -7.3700    2.1507   52.1889 C.ar    1  ZINC000751548479   -0.1600
     23 C23        -8.3008    1.1548   52.3994 C.ar    1  ZINC000751548479   -0.0500
     24 C24       -11.0951   -2.9107   56.4988 C.ar    1  ZINC000751548479   -0.0600
     25 C25       -10.3845   -2.7991   57.6957 C.ar    1  ZINC000751548479   -0.0300
     26 C26       -10.0620   -3.9709   58.4530 C.1     1  ZINC000751548479    0.2500
     27 N27        -9.8062   -4.9005   59.0538 N.1     1  ZINC000751548479   -0.4000
     28 H28        -8.0988    0.4639   63.6188 H       1  ZINC000751548479    0.0700
     29 H29        -9.4740    0.3742   64.7454 H       1  ZINC000751548479    0.0900
     30 H30        -8.6405   -1.1145   64.2383 H       1  ZINC000751548479    0.0700
     31 H31       -10.7935   -0.8467   63.0377 H       1  ZINC000751548479    0.0800
     32 H32       -10.2519    0.7316   62.4183 H       1  ZINC000751548479    0.0800
     33 H33        -8.3370   -1.5919   59.3774 H       1  ZINC000751548479    0.4200
     34 H34       -10.0095    0.5733   57.7691 H       1  ZINC000751548479    0.1600
     35 H35       -11.2524    0.3624   55.6608 H       1  ZINC000751548479    0.1700
     36 H36       -13.0715   -1.7477   54.5584 H       1  ZINC000751548479    0.4300
     37 H37       -10.3006    0.0217   53.2934 H       1  ZINC000751548479    0.1700
     38 H38        -8.8475   -2.2109   51.8132 H       1  ZINC000751548479    0.1500
     39 H39        -6.6119   -1.4418   51.0123 H       1  ZINC000751548479    0.1400
     40 H40        -4.9679    0.3484   50.6367 H       1  ZINC000751548479    0.1400
     41 H41        -7.5762    3.1590   52.5162 H       1  ZINC000751548479    0.1400
     42 H42        -9.2336    1.3819   52.8940 H       1  ZINC000751548479    0.1400
     43 H43       -11.4012   -3.8821   56.1395 H       1  ZINC000751548479    0.1500
@<TRIPOS>BOND
     1     1     2    1
     2     1    28    1
     3     1    29    1
     4     1    30    1
     5     2     3    1
     6     2    31    1
     7     2    32    1
     8     3     4    1
     9     4     5    2
    10     4     6   am
    11     6     7    1
    12     6    33    1
    13     7    25   ar
    14     7     8   ar
    15     8     9   ar
    16     8    34    1
    17     9    10   ar
    18     9    35    1
    19    10    11    1
    20    10    24   ar
    21    11    12   am
    22    11    36    1
    23    12    13    2
    24    12    14    2
    25    12    15    1
    26    15    16    2
    27    15    37    1
    28    16    17    1
    29    16    38    1
    30    17    23   ar
    31    17    18   ar
    32    18    19   ar
    33    18    39    1
    34    19    20   ar
    35    19    40    1
    36    20    21    1
    37    20    22   ar
    38    22    23   ar
    39    22    41    1
    40    23    42    1
    41    24    25   ar
    42    24    43    1
    43    25    26    1
    44    26    27    3
@<TRIPOS>SUBSTRUCTURE
     1 ZINC000751548479        1 TEMP              0 ****  ****    0 ROOT


##########                                Name:    ZINC000550952205
##########                DOCK_Rotatable_Bonds:                   7
##########                         Heavy_Atoms:                  28
##########                    Molecular_Weight:             407.484
##########                DOCK_Rotatable_Bonds:                   7
##########                       Formal_Charge:        -2.68221e-07
##########                     HBond_Acceptors:                   8
##########                        HBond_Donors:                   2
##########                         Heavy_Atoms:                  28
##########                          Grid_Score:          -38.480717
##########                     Grid_vdw_energy:          -38.503220
##########                      Grid_es_energy:            0.022504
##########           Internal_energy_repulsive:           10.136123

@<TRIPOS>MOLECULE
ZINC000550952205
 51 54 1 0 0
SMALL
USER_CHARGES


@<TRIPOS>ATOM
      1 O1        -10.4247    0.1600   52.6468 O.2     1  ZINC000550952205   -0.5100
      2 C2         -9.6540   -0.7775   52.6457 C.2     1  ZINC000550952205    0.5100
      3 N3        -10.0788   -1.9995   53.0233 N.am    1  ZINC000550952205   -0.7000
      4 C4        -11.4695   -2.1950   53.4408 C.3     1  ZINC000550952205    0.1200
      5 C5        -11.5326   -2.3124   54.9650 C.3     1  ZINC000550952205   -0.0900
      6 H6        -10.6070   -2.7518   55.3371 H       1  ZINC000550952205    0.1000
      7 C7        -11.7229   -0.9477   55.5697 C.3     1  ZINC000550952205   -0.1300
      8 C8        -11.0092   -0.7996   56.9270 C.3     1  ZINC000550952205   -0.1200
      9 C9        -11.1617   -2.0448   57.8213 C.3     1  ZINC000550952205   -0.1300
     10 C10       -12.5541   -2.6140   57.7833 C.3     1  ZINC000550952205   -0.1500
     11 C11       -12.5994   -3.7273   56.7167 C.3     1  ZINC000550952205    0.3000
     12 F12       -11.4223   -4.4793   56.7967 F       1  ZINC000550952205   -0.2000
     13 F13       -13.6894   -4.5635   56.9807 F       1  ZINC000550952205   -0.2000
     14 C14       -12.7267   -3.2019   55.3671 C.3     1  ZINC000550952205   -0.1700
     15 C15        -8.2366   -0.5782   52.2201 C.2     1  ZINC000550952205    0.5100
     16 O16        -7.4294   -1.4740   52.3597 O.2     1  ZINC000550952205   -0.4900
     17 N17        -7.8536    0.5962   51.6811 N.am    1  ZINC000550952205   -0.6400
     18 C18        -6.5267    0.7826   51.2828 C.ar    1  ZINC000550952205    0.1500
     19 C19        -5.9201   -0.1336   50.4250 C.ar    1  ZINC000550952205   -0.1200
     20 C20        -4.6292    0.0352   50.0287 C.ar    1  ZINC000550952205   -0.0400
     21 C21        -3.8803    1.1415   50.4792 C.ar    1  ZINC000550952205    0.0800
     22 N22        -2.6062    1.4840   50.2073 N.2     1  ZINC000550952205   -0.4700
     23 C23        -2.1462    2.5497   50.7444 C.2     1  ZINC000550952205    0.1200
     24 C24        -0.7454    3.0661   50.5387 C.3     1  ZINC000550952205   -0.1100
     25 C25         0.4005    2.0566   50.6328 C.3     1  ZINC000550952205   -0.1500
     26 C26        -0.0087    2.6250   49.2725 C.3     1  ZINC000550952205   -0.1500
     27 S27        -3.3172    3.3144   51.7221 S.3     1  ZINC000550952205    0.1200
     28 C28        -4.4925    2.0600   51.3401 C.ar    1  ZINC000550952205   -0.1700
     29 C29        -5.8154    1.8801   51.7347 C.ar    1  ZINC000550952205   -0.0700
     30 H30        -9.4639   -2.7496   53.0187 H       1  ZINC000550952205    0.4200
     31 H31       -12.0691   -1.3443   53.1168 H       1  ZINC000550952205    0.0800
     32 H32       -11.8594   -3.1073   52.9897 H       1  ZINC000550952205    0.0800
     33 H33       -11.3305   -0.1991   54.8814 H       1  ZINC000550952205    0.0700
     34 H34       -12.7890   -0.7699   55.7106 H       1  ZINC000550952205    0.0700
     35 H35        -9.9485   -0.6224   56.7490 H       1  ZINC000550952205    0.0700
     36 H36       -11.4242    0.0619   57.4503 H       1  ZINC000550952205    0.0700
     37 H37       -10.4596   -2.8080   57.4859 H       1  ZINC000550952205    0.0800
     38 H38       -10.9198   -1.7729   58.8488 H       1  ZINC000550952205    0.0700
     39 H39       -12.8062   -3.0306   58.7584 H       1  ZINC000550952205    0.0900
     40 H40       -13.2637   -1.8286   57.5230 H       1  ZINC000550952205    0.1000
     41 H41       -13.6390   -2.6088   55.3038 H       1  ZINC000550952205    0.1000
     42 H42       -12.8011   -4.0359   54.6692 H       1  ZINC000550952205    0.1000
     43 H43        -8.4986    1.3119   51.5695 H       1  ZINC000550952205    0.4300
     44 H44        -6.4804   -0.9865   50.0714 H       1  ZINC000550952205    0.1400
     45 H45        -4.1746   -0.6845   49.3640 H       1  ZINC000550952205    0.1400
     46 H46        -0.5583    4.0759   50.9040 H       1  ZINC000550952205    0.1300
     47 H47         1.3418    2.4022   51.0601 H       1  ZINC000550952205    0.1000
     48 H48         0.1412    1.0191   50.8434 H       1  ZINC000550952205    0.1100
     49 H49        -0.5372    1.9613   48.5881 H       1  ZINC000550952205    0.1000
     50 H50         0.6635    3.3444   48.8048 H       1  ZINC000550952205    0.1100
     51 H51        -6.2848    2.5946   52.3947 H       1  ZINC000550952205    0.1400
@<TRIPOS>BOND
     1     1     2    2
     2     2     3   am
     3     2    15    1
     4     3     4    1
     5     3    30    1
     6     4     5    1
     7     4    31    1
     8     4    32    1
     9     5     6    1
    10     5    14    1
    11     5     7    1
    12     7     8    1
    13     7    33    1
    14     7    34    1
    15     8     9    1
    16     8    35    1
    17     8    36    1
    18     9    10    1
    19     9    37    1
    20     9    38    1
    21    10    11    1
    22    10    39    1
    23    10    40    1
    24    11    12    1
    25    11    13    1
    26    11    14    1
    27    14    41    1
    28    14    42    1
    29    15    16    2
    30    15    17   am
    31    17    18    1
    32    17    43    1
    33    18    29   ar
    34    18    19   ar
    35    19    20   ar
    36    19    44    1
    37    20    21   ar
    38    20    45    1
    39    21    28   ar
    40    21    22    1
    41    22    23    2
    42    23    24    1
    43    23    27    1
    44    24    26    1
    45    24    25    1
    46    24    46    1
    47    25    26    1
    48    25    47    1
    49    25    48    1
    50    26    49    1
    51    26    50    1
    52    27    28    1
    53    28    29   ar
    54    29    51    1
@<TRIPOS>SUBSTRUCTURE
     1 ZINC000550952205        1 TEMP              0 ****  ****    0 ROOT


##########                                Name:    ZINC000600609084
##########                DOCK_Rotatable_Bonds:                   8
##########                         Heavy_Atoms:                  30
##########                    Molecular_Weight:             422.548
##########                DOCK_Rotatable_Bonds:                   8
##########                       Formal_Charge:           0.0100005
##########                     HBond_Acceptors:                   6
##########                        HBond_Donors:                   2
##########                         Heavy_Atoms:                  30
##########                          Grid_Score:          -38.418247
##########                     Grid_vdw_energy:          -36.758442
##########                      Grid_es_energy:           -1.659805
##########           Internal_energy_repulsive:           18.776180

@<TRIPOS>MOLECULE
ZINC000600609084
 56 59 1 0 0
SMALL
USER_CHARGES


@<TRIPOS>ATOM
      1 O1         -7.6345   -1.7691   52.2402 O.2     1  ZINC000600609084   -0.5300
      2 C2         -8.6614   -1.1243   52.2155 C.2     1  ZINC000600609084    0.5200
      3 C3         -9.9935   -1.8291   52.2100 C.3     1  ZINC000600609084   -0.1500
      4 C4        -10.8766   -1.2593   53.3219 C.3     1  ZINC000600609084    0.1300
      5 N5        -12.1201   -2.0295   53.4011 N.am    1  ZINC000600609084   -1.1200
      6 S6        -13.0235   -2.0035   54.7888 S.o2    1  ZINC000600609084    2.7000
      7 O7        -13.2625   -0.6347   55.0864 O.2     1  ZINC000600609084   -0.9600
      8 O8        -14.0652   -2.9528   54.6072 O.2     1  ZINC000600609084   -0.9500
      9 C9        -12.0052   -2.6243   56.0858 C.ar    1  ZINC000600609084   -0.6700
     10 C10       -11.9546   -3.9966   56.3215 C.ar    1  ZINC000600609084   -0.0400
     11 C11       -11.1782   -4.5090   57.3153 C.ar    1  ZINC000600609084   -0.1200
     12 C12       -10.4150   -3.6438   58.1173 C.ar    1  ZINC000600609084   -0.0100
     13 C13        -9.6011   -4.1354   59.1522 C.ar    1  ZINC000600609084   -0.1200
     14 C14        -8.8754   -3.2673   59.9084 C.ar    1  ZINC000600609084   -0.0900
     15 C15        -8.9260   -1.8945   59.6726 C.ar    1  ZINC000600609084   -0.1200
     16 C16        -9.7027   -1.3822   58.6794 C.ar    1  ZINC000600609084   -0.0900
     17 C17       -10.4664   -2.2476   57.8774 C.ar    1  ZINC000600609084   -0.0800
     18 C18       -11.2752   -1.7565   56.8389 C.ar    1  ZINC000600609084    0.0200
     19 N19        -8.6114    0.2224   52.1986 N.am    1  ZINC000600609084   -0.7200
     20 C20        -7.3165    0.9074   52.2039 C.3     1  ZINC000600609084    0.1400
     21 H21        -6.6942    0.5229   53.0119 H       1  ZINC000600609084    0.1000
     22 C22        -6.6085    0.7067   50.8524 C.3     1  ZINC000600609084   -0.1300
     23 C23        -6.4098    2.1113   50.2462 C.3     1  ZINC000600609084   -0.1300
     24 C24        -7.5024    2.9754   50.9233 C.3     1  ZINC000600609084   -0.1200
     25 C25        -7.5230    2.4267   52.3730 C.3     1  ZINC000600609084   -0.0700
     26 H26        -6.7108    2.8601   52.9565 H       1  ZINC000600609084    0.0900
     27 C27        -8.8508    2.7124   53.0262 C.ar    1  ZINC000600609084   -0.0600
     28 C28        -9.1687    2.1198   54.2339 C.ar    1  ZINC000600609084   -0.1100
     29 C29       -10.3866    2.3818   54.8330 C.ar    1  ZINC000600609084   -0.1200
     30 C30       -11.2864    3.2369   54.2245 C.ar    1  ZINC000600609084   -0.1200
     31 C31       -10.9681    3.8301   53.0173 C.ar    1  ZINC000600609084   -0.1200
     32 C32        -9.7484    3.5715   52.4203 C.ar    1  ZINC000600609084   -0.1100
     33 H33       -10.4802   -1.6787   51.2465 H       1  ZINC000600609084    0.1000
     34 H34        -9.8411   -2.8953   52.3776 H       1  ZINC000600609084    0.1000
     35 H35       -10.3487   -1.3226   54.2736 H       1  ZINC000600609084    0.0900
     36 H36       -11.1082   -0.2167   53.1037 H       1  ZINC000600609084    0.0800
     37 H37       -12.4145   -2.5549   52.6406 H       1  ZINC000600609084    0.4200
     38 H38       -12.5406   -4.6638   55.7068 H       1  ZINC000600609084    0.1400
     39 H39       -11.1492   -5.5749   57.4868 H       1  ZINC000600609084    0.1400
     40 H40        -9.5522   -5.1967   59.3468 H       1  ZINC000600609084    0.1300
     41 H41        -8.2512   -3.6477   60.7033 H       1  ZINC000600609084    0.1300
     42 H42        -8.3404   -1.2273   60.2876 H       1  ZINC000600609084    0.1300
     43 H43        -9.7323   -0.3162   58.5085 H       1  ZINC000600609084    0.1300
     44 H44       -11.3205   -0.6956   56.6416 H       1  ZINC000600609084    0.1500
     45 H45        -9.4328    0.7380   52.1829 H       1  ZINC000600609084    0.4000
     46 H46        -5.6425    0.2256   51.0048 H       1  ZINC000600609084    0.0800
     47 H47        -7.2285    0.0996   50.1926 H       1  ZINC000600609084    0.0700
     48 H48        -5.4177    2.4936   50.4866 H       1  ZINC000600609084    0.0700
     49 H49        -6.5584    2.0854   49.1667 H       1  ZINC000600609084    0.0700
     50 H50        -7.2231    4.0290   50.9132 H       1  ZINC000600609084    0.0700
     51 H51        -8.4677    2.8259   50.4399 H       1  ZINC000600609084    0.0700
     52 H52        -8.4657    1.4518   54.7092 H       1  ZINC000600609084    0.1200
     53 H53       -10.6352    1.9182   55.7762 H       1  ZINC000600609084    0.1200
     54 H54       -12.2382    3.4409   54.6923 H       1  ZINC000600609084    0.1200
     55 H55       -11.6713    4.4978   52.5418 H       1  ZINC000600609084    0.1200
     56 H56        -9.4998    4.0350   51.4770 H       1  ZINC000600609084    0.1200
@<TRIPOS>BOND
     1     1     2    2
     2     2     3    1
     3     2    19   am
     4     3     4    1
     5     3    33    1
     6     3    34    1
     7     4     5    1
     8     4    35    1
     9     4    36    1
    10     5     6   am
    11     5    37    1
    12     6     7    2
    13     6     8    2
    14     6     9    1
    15     9    18   ar
    16     9    10   ar
    17    10    11   ar
    18    10    38    1
    19    11    12   ar
    20    11    39    1
    21    12    17   ar
    22    12    13   ar
    23    13    14   ar
    24    13    40    1
    25    14    15   ar
    26    14    41    1
    27    15    16   ar
    28    15    42    1
    29    16    17   ar
    30    16    43    1
    31    17    18   ar
    32    18    44    1
    33    19    20    1
    34    19    45    1
    35    20    21    1
    36    20    25    1
    37    20    22    1
    38    22    23    1
    39    22    46    1
    40    22    47    1
    41    23    24    1
    42    23    48    1
    43    23    49    1
    44    24    25    1
    45    24    50    1
    46    24    51    1
    47    25    26    1
    48    25    27    1
    49    27    32   ar
    50    27    28   ar
    51    28    29   ar
    52    28    52    1
    53    29    30   ar
    54    29    53    1
    55    30    31   ar
    56    30    54    1
    57    31    32   ar
    58    31    55    1
    59    32    56    1
@<TRIPOS>SUBSTRUCTURE
     1 ZINC000600609084        1 TEMP              0 ****  ****    0 ROOT


##########                                Name:    ZINC000508765459
##########                DOCK_Rotatable_Bonds:                  10
##########                         Heavy_Atoms:                  29
##########                    Molecular_Weight:               405.5
##########                DOCK_Rotatable_Bonds:                  10
##########                       Formal_Charge:         -6.4075e-07
##########                     HBond_Acceptors:                  10
##########                        HBond_Donors:                   1
##########                         Heavy_Atoms:                  29
##########                          Grid_Score:          -38.409233
##########                     Grid_vdw_energy:          -36.329399
##########                      Grid_es_energy:           -2.079834
##########           Internal_energy_repulsive:           16.226591

@<TRIPOS>MOLECULE
ZINC000508765459
 60 62 1 0 0
SMALL
USER_CHARGES


@<TRIPOS>ATOM
      1 C1        -13.9402   -2.3107   53.0971 C.3     1  ZINC000508765459    0.0300
      2 O2        -12.9192   -1.9830   52.1524 O.3     1  ZINC000508765459   -0.3900
      3 C3        -12.1163   -0.8628   52.5297 C.3     1  ZINC000508765459    0.0500
      4 C4        -11.0414   -1.3161   53.5197 C.3     1  ZINC000508765459    0.1100
      5 N5         -9.8469   -0.4835   53.3587 N.am    1  ZINC000508765459   -0.5900
      6 C6         -9.7704    0.7480   54.1327 C.3     1  ZINC000508765459    0.1000
      7 C7         -8.3180    1.2048   54.2834 C.3     1  ZINC000508765459    0.1200
      8 N8         -7.6724    1.1275   52.9620 N.am    1  ZINC000508765459   -0.6400
      9 C9         -7.1749    2.2255   52.3594 C.2     1  ZINC000508765459    0.7100
     10 O10        -7.2527    3.3080   52.9077 O.2     1  ZINC000508765459   -0.5800
     11 N11        -6.5909    2.1237   51.1490 N.am    1  ZINC000508765459   -0.7400
     12 C12        -6.0484    3.3170   50.4947 C.3     1  ZINC000508765459    0.1400
     13 C13        -4.5311    3.3592   50.6877 C.3     1  ZINC000508765459   -0.1400
     14 C14        -3.8819    2.2395   49.8718 C.3     1  ZINC000508765459    0.0600
     15 N15        -2.4233    2.4131   49.8761 N.3     1  ZINC000508765459   -0.5400
     16 C16        -1.7814    1.4999   48.9201 C.3     1  ZINC000508765459    0.0500
     17 C17        -0.2745    1.7667   48.8969 C.3     1  ZINC000508765459    0.0700
     18 N18         0.2740    1.5813   50.2476 N.3     1  ZINC000508765459   -0.4600
     19 C19         1.6484    1.7450   50.2516 C.ar    1  ZINC000508765459    0.4900
     20 N20         2.3771    1.0739   51.1313 N.ar    1  ZINC000508765459   -0.5500
     21 C21         3.6928    1.2072   51.1616 C.ar    1  ZINC000508765459    0.1700
     22 C22         4.3067    2.0609   50.2585 C.ar    1  ZINC000508765459   -0.2600
     23 C23         3.5145    2.7475   49.3518 C.ar    1  ZINC000508765459    0.1700
     24 N24         2.2045    2.5649   49.3718 N.ar    1  ZINC000508765459   -0.5300
     25 C25        -0.3679    2.4945   51.2035 C.3     1  ZINC000508765459    0.0700
     26 C26        -1.8747    2.2276   51.2267 C.3     1  ZINC000508765459    0.0600
     27 C27        -7.5923   -0.1964   52.3271 C.3     1  ZINC000508765459    0.1000
     28 C28        -8.9032   -0.9089   52.5175 C.2     1  ZINC000508765459    0.5100
     29 O29        -9.1157   -1.9122   51.8700 O.2     1  ZINC000508765459   -0.5400
     30 H30       -14.6111   -1.4600   53.2167 H       1  ZINC000508765459    0.0400
     31 H31       -14.5050   -3.1710   52.7378 H       1  ZINC000508765459    0.0900
     32 H32       -13.4834   -2.5512   54.0571 H       1  ZINC000508765459    0.0400
     33 H33       -11.6402   -0.4422   51.6440 H       1  ZINC000508765459    0.0500
     34 H34       -12.7456   -0.1060   52.9980 H       1  ZINC000508765459    0.0600
     35 H35       -11.4193   -1.2164   54.5372 H       1  ZINC000508765459    0.1100
     36 H36       -10.7865   -2.3583   53.3273 H       1  ZINC000508765459    0.0900
     37 H37       -10.3406    1.5264   53.6258 H       1  ZINC000508765459    0.0700
     38 H38       -10.1972    0.5775   55.1211 H       1  ZINC000508765459    0.1000
     39 H39        -8.2915    2.2324   54.6462 H       1  ZINC000508765459    0.1200
     40 H40        -7.7984    0.5528   54.9854 H       1  ZINC000508765459    0.0800
     41 H41        -6.5298    1.2603   50.7110 H       1  ZINC000508765459    0.4000
     42 H42        -6.2784    3.2837   49.4298 H       1  ZINC000508765459    0.0700
     43 H43        -6.4956    4.2080   50.9354 H       1  ZINC000508765459    0.0700
     44 H44        -4.1487    4.3228   50.3510 H       1  ZINC000508765459    0.0700
     45 H45        -4.2953    3.2233   51.7432 H       1  ZINC000508765459    0.0800
     46 H46        -4.1344    1.2752   50.3128 H       1  ZINC000508765459    0.0800
     47 H47        -4.2494    2.2774   48.8462 H       1  ZINC000508765459    0.0400
     48 H48        -1.9636    0.4689   49.2236 H       1  ZINC000508765459    0.0500
     49 H49        -2.1953    1.6651   47.9254 H       1  ZINC000508765459    0.0900
     50 H50         0.2074    1.0710   48.2101 H       1  ZINC000508765459    0.0900
     51 H51        -0.0913    2.7894   48.5673 H       1  ZINC000508765459    0.0600
     52 H52         4.2814    0.6578   51.8812 H       1  ZINC000508765459    0.1700
     53 H53         5.3792    2.1887   50.2616 H       1  ZINC000508765459    0.1500
     54 H54         3.9616    3.4206   48.6353 H       1  ZINC000508765459    0.1700
     55 H55         0.0460    2.3294   52.1983 H       1  ZINC000508765459    0.1000
     56 H56        -0.1857    3.5254   50.9001 H       1  ZINC000508765459    0.0500
     57 H57        -2.3566    2.9234   51.9136 H       1  ZINC000508765459    0.0900
     58 H58        -2.0579    1.2050   51.5565 H       1  ZINC000508765459    0.0500
     59 H59        -7.3885   -0.0791   51.2628 H       1  ZINC000508765459    0.1100
     60 H60        -6.7948   -0.7763   52.7915 H       1  ZINC000508765459    0.1100
@<TRIPOS>BOND
     1     1     2    1
     2     1    30    1
     3     1    31    1
     4     1    32    1
     5     2     3    1
     6     3     4    1
     7     3    33    1
     8     3    34    1
     9     4     5    1
    10     4    35    1
    11     4    36    1
    12     5    28   am
    13     5     6    1
    14     6     7    1
    15     6    37    1
    16     6    38    1
    17     7     8    1
    18     7    39    1
    19     7    40    1
    20     8     9   am
    21     8    27    1
    22     9    10    2
    23     9    11   am
    24    11    12    1
    25    11    41    1
    26    12    13    1
    27    12    42    1
    28    12    43    1
    29    13    14    1
    30    13    44    1
    31    13    45    1
    32    14    15    1
    33    14    46    1
    34    14    47    1
    35    15    26    1
    36    15    16    1
    37    16    17    1
    38    16    48    1
    39    16    49    1
    40    17    18    1
    41    17    50    1
    42    17    51    1
    43    18    19    1
    44    18    25    1
    45    19    24   ar
    46    19    20   ar
    47    20    21   ar
    48    21    22   ar
    49    21    52    1
    50    22    23   ar
    51    22    53    1
    52    23    24   ar
    53    23    54    1
    54    25    26    1
    55    25    55    1
    56    25    56    1
    57    26    57    1
    58    26    58    1
    59    27    28    1
    60    27    59    1
    61    27    60    1
    62    28    29    2
@<TRIPOS>SUBSTRUCTURE
     1 ZINC000508765459        1 TEMP              0 ****  ****    0 ROOT


##########                                Name:    ZINC000824084043
##########                DOCK_Rotatable_Bonds:                  11
##########                         Heavy_Atoms:                  27
##########                    Molecular_Weight:             382.547
##########                DOCK_Rotatable_Bonds:                  11
##########                       Formal_Charge:        -6.85453e-07
##########                     HBond_Acceptors:                   7
##########                        HBond_Donors:                   3
##########                         Heavy_Atoms:                  27
##########                          Grid_Score:          -38.380066
##########                     Grid_vdw_energy:          -35.708759
##########                      Grid_es_energy:           -2.671307
##########           Internal_energy_repulsive:           17.834991

@<TRIPOS>MOLECULE
ZINC000824084043
 65 66 1 0 0
SMALL
USER_CHARGES


@<TRIPOS>ATOM
      1 C1        -13.7737   -4.2708   55.3623 C.3     1  ZINC000824084043   -0.1400
      2 C2        -13.1024   -3.1533   56.1633 C.3     1  ZINC000824084043   -0.1000
      3 C3        -11.9020   -3.7210   56.9233 C.3     1  ZINC000824084043   -0.1300
      4 C4        -12.6289   -2.0553   55.2088 C.3     1  ZINC000824084043    0.1700
      5 H5        -13.4466   -1.7726   54.5459 H       1  ZINC000824084043    0.0700
      6 C6        -12.1821   -0.8351   56.0165 C.3     1  ZINC000824084043   -0.1400
      7 C7        -12.5683    0.4418   55.2673 C.3     1  ZINC000824084043    0.1300
      8 N8        -11.3925    1.3060   55.1368 N.am    1  ZINC000824084043   -0.6200
      9 C9        -10.9856    2.1628   56.2533 C.3     1  ZINC000824084043    0.0800
     10 C10       -10.6852    1.3127   53.9897 C.2     1  ZINC000824084043    0.7000
     11 O11       -11.0237    0.6028   53.0624 O.2     1  ZINC000824084043   -0.5800
     12 N12        -9.6025    2.1065   53.8702 N.am    1  ZINC000824084043   -0.7500
     13 C13        -8.8325    2.1126   52.6239 C.3     1  ZINC000824084043    0.1600
     14 C14        -8.1242    3.4612   52.4662 C.3     1  ZINC000824084043   -0.1600
     15 C15        -7.2593    3.4323   51.2041 C.3     1  ZINC000824084043   -0.0100
     16 N16        -6.2599    2.3631   51.3158 N.4     1  ZINC000824084043   -0.3800
     17 H17        -5.7069    2.5066   52.1474 H       1  ZINC000824084043    0.4200
     18 C18        -5.3841    2.3883   50.1367 C.3     1  ZINC000824084043    0.0000
     19 C19        -3.9317    2.1915   50.5759 C.3     1  ZINC000824084043   -0.1200
     20 C20        -2.9953    2.1378   49.3433 C.3     1  ZINC000824084043   -0.1400
     21 C21        -1.6249    2.5480   49.9372 C.3     1  ZINC000824084043   -0.1200
     22 C22        -1.9713    3.6432   50.9670 C.3     1  ZINC000824084043   -0.1300
     23 C23        -3.4381    3.4165   51.3731 C.3     1  ZINC000824084043   -0.1100
     24 C24        -6.9312    1.0601   51.3952 C.3     1  ZINC000824084043    0.0000
     25 C25        -7.7835    0.9977   52.6646 C.3     1  ZINC000824084043   -0.1600
     26 N26       -11.5041   -2.5523   54.4123 N.am    1  ZINC000824084043   -0.7800
     27 C27       -11.7050   -2.9600   53.1435 C.2     1  ZINC000824084043    0.6600
     28 O28       -12.8265   -2.9166   52.6576 O.co2   1  ZINC000824084043   -0.7200
     29 O29       -10.7656   -3.3735   52.4782 O.co2   1  ZINC000824084043   -0.7300
     30 H30       -14.1110   -5.0529   56.0423 H       1  ZINC000824084043    0.0500
     31 H31       -14.6289   -3.8663   54.8208 H       1  ZINC000824084043    0.0500
     32 H32       -13.0594   -4.6889   54.6532 H       1  ZINC000824084043    0.0500
     33 H33       -13.8167   -2.7350   56.8725 H       1  ZINC000824084043    0.0500
     34 H34       -11.1877   -4.1391   56.2142 H       1  ZINC000824084043    0.0600
     35 H35       -11.4238   -2.9248   57.4941 H       1  ZINC000824084043    0.0700
     36 H36       -12.2393   -4.5031   57.6033 H       1  ZINC000824084043    0.0300
     37 H37       -12.6698   -0.8462   56.9913 H       1  ZINC000824084043    0.0700
     38 H38       -11.1008   -0.8645   56.1510 H       1  ZINC000824084043    0.0600
     39 H39       -12.9408    0.1830   54.2762 H       1  ZINC000824084043    0.0900
     40 H40       -13.3457    0.9673   55.8219 H       1  ZINC000824084043    0.0900
     41 H41       -10.2895    1.6201   56.8928 H       1  ZINC000824084043    0.0600
     42 H42       -10.5004    3.0585   55.8658 H       1  ZINC000824084043    0.0600
     43 H43       -11.8645    2.4472   56.8320 H       1  ZINC000824084043    0.0800
     44 H44        -9.3332    2.6739   54.6095 H       1  ZINC000824084043    0.4000
     45 H45        -9.5035    1.9511   51.7802 H       1  ZINC000824084043    0.1100
     46 H46        -8.8668    4.2544   52.3805 H       1  ZINC000824084043    0.1200
     47 H47        -7.4932    3.6446   53.3357 H       1  ZINC000824084043    0.0900
     48 H48        -7.8914    3.2490   50.3352 H       1  ZINC000824084043    0.1300
     49 H49        -6.7537    4.3910   51.0887 H       1  ZINC000824084043    0.1300
     50 H50        -5.6694    1.5871   49.4550 H       1  ZINC000824084043    0.1300
     51 H51        -5.4837    3.3486   49.6307 H       1  ZINC000824084043    0.1300
     52 H52        -3.8340    1.2839   51.1716 H       1  ZINC000824084043    0.1000
     53 H53        -2.9526    1.1284   48.9343 H       1  ZINC000824084043    0.0700
     54 H54        -3.3158    2.8505   48.5833 H       1  ZINC000824084043    0.0800
     55 H55        -1.1523    1.6977   50.4288 H       1  ZINC000824084043    0.0700
     56 H56        -0.9760    2.9484   49.1583 H       1  ZINC000824084043    0.0800
     57 H57        -1.3241    3.5533   51.8394 H       1  ZINC000824084043    0.0700
     58 H58        -1.8567    4.6290   50.5164 H       1  ZINC000824084043    0.0700
     59 H59        -4.0353    4.2923   51.1196 H       1  ZINC000824084043    0.0700
     60 H60        -3.5028    3.2166   52.4426 H       1  ZINC000824084043    0.0800
     61 H61        -7.5702    0.9274   50.5222 H       1  ZINC000824084043    0.1300
     62 H62        -6.1834    0.2676   51.4209 H       1  ZINC000824084043    0.1300
     63 H63        -7.1453    1.1301   53.5383 H       1  ZINC000824084043    0.0900
     64 H64        -8.2824    0.0302   52.7208 H       1  ZINC000824084043    0.1200
     65 H65       -10.6149   -2.5879   54.7982 H       1  ZINC000824084043    0.3600
@<TRIPOS>BOND
     1     1     2    1
     2     1    30    1
     3     1    31    1
     4     1    32    1
     5     2     3    1
     6     2     4    1
     7     2    33    1
     8     3    34    1
     9     3    35    1
    10     3    36    1
    11     4     5    1
    12     4     6    1
    13     4    26    1
    14     6     7    1
    15     6    37    1
    16     6    38    1
    17     7     8    1
    18     7    39    1
    19     7    40    1
    20     8     9    1
    21     8    10   am
    22     9    41    1
    23     9    42    1
    24     9    43    1
    25    10    11    2
    26    10    12   am
    27    12    13    1
    28    12    44    1
    29    13    25    1
    30    13    14    1
    31    13    45    1
    32    14    15    1
    33    14    46    1
    34    14    47    1
    35    15    16    1
    36    15    48    1
    37    15    49    1
    38    16    17    1
    39    16    18    1
    40    16    24    1
    41    18    19    1
    42    18    50    1
    43    18    51    1
    44    19    23    1
    45    19    20    1
    46    19    52    1
    47    20    21    1
    48    20    53    1
    49    20    54    1
    50    21    22    1
    51    21    55    1
    52    21    56    1
    53    22    23    1
    54    22    57    1
    55    22    58    1
    56    23    59    1
    57    23    60    1
    58    24    25    1
    59    24    61    1
    60    24    62    1
    61    25    63    1
    62    25    64    1
    63    26    27   am
    64    26    65    1
    65    27    28   ar
    66    27    29   ar
@<TRIPOS>SUBSTRUCTURE
     1 ZINC000824084043        1 TEMP              0 ****  ****    0 ROOT


##########                                Name:    ZINC001207290212
##########                DOCK_Rotatable_Bonds:                   8
##########                         Heavy_Atoms:                  23
##########                    Molecular_Weight:             344.435
##########                DOCK_Rotatable_Bonds:                   8
##########                       Formal_Charge:               -0.03
##########                     HBond_Acceptors:                   9
##########                        HBond_Donors:                   2
##########                         Heavy_Atoms:                  23
##########                          Grid_Score:          -38.375866
##########                     Grid_vdw_energy:          -35.251480
##########                      Grid_es_energy:           -3.124386
##########           Internal_energy_repulsive:            5.436380

@<TRIPOS>MOLECULE
ZINC001207290212
 47 48 1 0 0
SMALL
USER_CHARGES


@<TRIPOS>ATOM
      1 C1         -9.6129    0.9275   55.8680 C.3     1  ZINC001207290212   -0.1500
      2 C2         -9.7342    1.9168   54.7071 C.3     1  ZINC001207290212   -0.6300
      3 S3         -9.4665    1.0451   53.1391 S.o2    1  ZINC001207290212    2.6100
      4 O4        -10.3123   -0.0934   53.0508 O.2     1  ZINC001207290212   -0.9500
      5 O5         -9.3685    1.9700   52.0647 O.2     1  ZINC001207290212   -0.9500
      6 N6         -7.9422    0.4120   53.2733 N.am    1  ZINC001207290212   -1.1100
      7 C7         -7.3756   -0.3727   52.1737 C.3     1  ZINC001207290212    0.0900
      8 C8         -6.5850    0.5333   51.2652 C.2     1  ZINC001207290212    0.5100
      9 O9         -7.0195    0.8235   50.1706 O.2     1  ZINC001207290212   -0.5300
     10 N10        -5.3954    1.0211   51.6690 N.am    1  ZINC001207290212   -0.7200
     11 C11        -4.6277    1.9033   50.7866 C.3     1  ZINC001207290212    0.1400
     12 H12        -5.3003    2.4875   50.1586 H       1  ZINC001207290212    0.1000
     13 C13        -3.6631    1.0789   49.9141 C.3     1  ZINC001207290212    0.0200
     14 N14        -2.2906    1.5061   50.2621 N.3     1  ZINC001207290212   -0.5100
     15 C15        -1.4119    1.4641   49.0856 C.3     1  ZINC001207290212    0.1300
     16 C16        -0.0029    1.8034   49.4986 C.2     1  ZINC001207290212    0.0000
     17 C17         0.8343    2.6324   48.8535 C.2     1  ZINC001207290212   -0.0700
     18 O18         1.9862    2.6554   49.5523 O.3     1  ZINC001207290212   -0.2000
     19 C19         1.8392    1.8452   50.6091 C.2     1  ZINC001207290212    0.1900
     20 C20         2.8854    1.5739   51.6593 C.3     1  ZINC001207290212   -0.0600
     21 N21         0.6408    1.3355   50.5826 N.2     1  ZINC001207290212   -0.4700
     22 C22        -2.4174    2.8914   50.7827 C.3     1  ZINC001207290212    0.0400
     23 C23        -3.7224    2.8396   51.6195 C.3     1  ZINC001207290212   -0.1000
     24 H24        -3.5321    2.4143   52.6049 H       1  ZINC001207290212    0.0900
     25 C25        -4.3415    4.2332   51.7437 C.3     1  ZINC001207290212   -0.1400
     26 H26       -10.3612    0.1428   55.7562 H       1  ZINC001207290212    0.0700
     27 H27        -8.6175    0.4836   55.8644 H       1  ZINC001207290212    0.0700
     28 H28        -9.7738    1.4514   56.8102 H       1  ZINC001207290212    0.0800
     29 H29       -10.7297    2.3608   54.7107 H       1  ZINC001207290212    0.1300
     30 H30        -8.9860    2.7016   54.8189 H       1  ZINC001207290212    0.1300
     31 H31        -7.4245    0.5607   54.0801 H       1  ZINC001207290212    0.4300
     32 H32        -6.7198   -1.1439   52.5779 H       1  ZINC001207290212    0.1000
     33 H33        -8.1815   -0.8408   51.6083 H       1  ZINC001207290212    0.1100
     34 H34        -5.0474    0.7880   52.5440 H       1  ZINC001207290212    0.4100
     35 H35        -3.7864    0.0167   50.1261 H       1  ZINC001207290212    0.0800
     36 H36        -3.8568    1.2747   48.8595 H       1  ZINC001207290212    0.0500
     37 H37        -1.4327    0.4643   48.6521 H       1  ZINC001207290212    0.0600
     38 H38        -1.7584    2.1875   48.3474 H       1  ZINC001207290212    0.1000
     39 H39         0.6240    3.1777   47.9452 H       1  ZINC001207290212    0.2100
     40 H40         3.7876    2.1401   51.4282 H       1  ZINC001207290212    0.0900
     41 H41         2.5069    1.8762   52.6358 H       1  ZINC001207290212    0.1000
     42 H42         3.1183    0.5091   51.6736 H       1  ZINC001207290212    0.1000
     43 H43        -1.5654    3.1449   51.4135 H       1  ZINC001207290212    0.0900
     44 H44        -2.5156    3.6030   49.9628 H       1  ZINC001207290212    0.0500
     45 H45        -4.5514    4.6276   50.7494 H       1  ZINC001207290212    0.0600
     46 H46        -5.2691    4.1693   52.3125 H       1  ZINC001207290212    0.0600
     47 H47        -3.6450    4.8956   52.2578 H       1  ZINC001207290212    0.0600
@<TRIPOS>BOND
     1     1     2    1
     2     1    26    1
     3     1    27    1
     4     1    28    1
     5     2     3    1
     6     2    29    1
     7     2    30    1
     8     3     4    2
     9     3     5    2
    10     3     6   am
    11     6     7    1
    12     6    31    1
    13     7     8    1
    14     7    32    1
    15     7    33    1
    16     8     9    2
    17     8    10   am
    18    10    11    1
    19    10    34    1
    20    11    12    1
    21    11    23    1
    22    11    13    1
    23    13    14    1
    24    13    35    1
    25    13    36    1
    26    14    15    1
    27    14    22    1
    28    15    16    1
    29    15    37    1
    30    15    38    1
    31    16    21    1
    32    16    17    2
    33    17    18    1
    34    17    39    1
    35    18    19    1
    36    19    20    1
    37    19    21    2
    38    20    40    1
    39    20    41    1
    40    20    42    1
    41    22    23    1
    42    22    43    1
    43    22    44    1
    44    23    24    1
    45    23    25    1
    46    25    45    1
    47    25    46    1
    48    25    47    1
@<TRIPOS>SUBSTRUCTURE
     1 ZINC001207290212        1 TEMP              0 ****  ****    0 ROOT


##########                                Name:    ZINC000193795672
##########                DOCK_Rotatable_Bonds:                  10
##########                         Heavy_Atoms:                  23
##########                    Molecular_Weight:              332.47
##########                DOCK_Rotatable_Bonds:                  10
##########                       Formal_Charge:        -2.98023e-07
##########                     HBond_Acceptors:                   6
##########                        HBond_Donors:                   3
##########                         Heavy_Atoms:                  23
##########                          Grid_Score:          -38.361115
##########                     Grid_vdw_energy:          -38.228348
##########                      Grid_es_energy:           -0.132767
##########           Internal_energy_repulsive:           10.024005

@<TRIPOS>MOLECULE
ZINC000193795672
 47 48 1 0 0
SMALL
USER_CHARGES


@<TRIPOS>ATOM
      1 C1          0.0537    2.2681   49.4538 C.3     1  <0>        -0.1000
      2 C2         -1.3472    2.1494   49.9967 C.ar    1  <0>        -0.2000
      3 C3         -1.8058    3.0429   50.9552 C.ar    1  <0>        -0.0300
      4 C4         -3.0983    2.8992   51.4271 C.ar    1  <0>        -0.2400
      5 C5         -3.8900    1.8702   50.9280 C.ar    1  <0>         0.4000
      6 N6         -5.1906    1.7143   51.3933 N.pl3   1  <0>        -0.7300
      7 C7         -6.2571    1.3211   50.4690 C.3     1  <0>         0.1300
      8 C8         -6.5864   -0.1594   50.6704 C.3     1  <0>        -0.1400
      9 C9         -7.3019   -0.3451   52.0100 C.3     1  <0>         0.1400
     10 N10        -8.3756   -1.3301   51.8577 N.am    1  <0>        -0.7500
     11 C11        -9.4715   -1.2585   52.6388 C.2     1  <0>         0.7100
     12 O12        -9.5698   -0.3755   53.4689 O.2     1  <0>        -0.5900
     13 N13       -10.4586   -2.1656   52.4998 N.am    1  <0>        -0.7400
     14 C14       -11.6491   -2.0889   53.3502 C.3     1  <0>         0.1700
     15 H15       -11.3457   -1.9597   54.3891 H       1  <0>         0.0900
     16 C16       -12.5086   -0.8991   52.9181 C.3     1  <0>        -0.1700
     17 C17       -12.4587   -3.3798   53.2119 C.3     1  <0>        -0.0600
     18 C18       -13.0146   -3.7705   54.5571 C.2     1  <0>        -0.1700
     19 C19       -13.5567   -4.9533   54.8509 C.2     1  <0>        -0.1400
     20 C20       -14.0000   -5.0837   56.1558 C.2     1  <0>        -0.1300
     21 C21       -13.8180   -4.0067   56.9215 C.2     1  <0>        -0.2100
     22 S22       -13.0409   -2.7393   55.9816 S.3     1  <0>         0.0900
     23 N23        -3.4161    1.0382   50.0134 N.ar    1  <0>        -0.5400
     24 C24        -2.1893    1.1543   49.5418 C.ar    1  <0>         0.1500
     25 H25         0.0513    2.9231   48.5825 H       1  <0>         0.0700
     26 H26         0.7063    2.6858   50.2204 H       1  <0>         0.0600
     27 H27         0.4165    1.2815   49.1656 H       1  <0>         0.0700
     28 H28        -1.1677    3.8322   51.3246 H       1  <0>         0.1300
     29 H29        -3.4871    3.5766   52.1730 H       1  <0>         0.1300
     30 H30        -5.3921    1.8658   52.3301 H       1  <0>         0.4000
     31 H31        -7.1462    1.9208   50.6640 H       1  <0>         0.0700
     32 H32        -5.9270    1.4836   49.4430 H       1  <0>         0.0700
     33 H33        -7.2335   -0.5009   49.8625 H       1  <0>         0.0800
     34 H34        -5.6641   -0.7404   50.6675 H       1  <0>         0.0800
     35 H35        -6.5898   -0.6964   52.7566 H       1  <0>         0.0700
     36 H36        -7.7250    0.6068   52.3309 H       1  <0>         0.0700
     37 H37        -8.2978   -2.0338   51.1946 H       1  <0>         0.4000
     38 H38       -10.3807   -2.8694   51.8368 H       1  <0>         0.3900
     39 H39       -12.8119   -1.0282   51.8792 H       1  <0>         0.0600
     40 H40       -13.3944   -0.8420   53.5508 H       1  <0>         0.0700
     41 H41       -11.9318    0.0205   53.0166 H       1  <0>         0.0700
     42 H42       -13.2790   -3.2209   52.5120 H       1  <0>         0.1000
     43 H43       -11.8130   -4.1755   52.8405 H       1  <0>         0.0800
     44 H44       -13.6433   -5.7488   54.1257 H       1  <0>         0.1400
     45 H45       -14.4589   -5.9887   56.5257 H       1  <0>         0.1400
     46 H46       -14.1011   -3.9266   57.9607 H       1  <0>         0.1600
     47 H47        -1.8367    0.4572   48.7962 H       1  <0>         0.1500
@<TRIPOS>BOND
     1     1     2    1
     2     1    25    1
     3     1    26    1
     4     1    27    1
     5     2    24   ar
     6     2     3   ar
     7     3     4   ar
     8     3    28    1
     9     4     5   ar
    10     4    29    1
    11     5     6    1
    12     5    23   ar
    13     6     7    1
    14     6    30    1
    15     7     8    1
    16     7    31    1
    17     7    32    1
    18     8     9    1
    19     8    33    1
    20     8    34    1
    21     9    10    1
    22     9    35    1
    23     9    36    1
    24    10    11   am
    25    10    37    1
    26    11    12    2
    27    11    13   am
    28    13    14    1
    29    13    38    1
    30    14    15    1
    31    14    16    1
    32    14    17    1
    33    16    39    1
    34    16    40    1
    35    16    41    1
    36    17    18    1
    37    17    42    1
    38    17    43    1
    39    18    22    1
    40    18    19    2
    41    19    20    1
    42    19    44    1
    43    20    21    2
    44    20    45    1
    45    21    22    1
    46    21    46    1
    47    23    24   ar
    48    24    47    1
@<TRIPOS>SUBSTRUCTURE
     1 <0>         1 TEMP              0 ****  ****    0 ROOT


##########                                Name:    ZINC000175255939
##########                DOCK_Rotatable_Bonds:                   8
##########                         Heavy_Atoms:                  28
##########                    Molecular_Weight:             394.375
##########                DOCK_Rotatable_Bonds:                   8
##########                       Formal_Charge:          -0.0399999
##########                     HBond_Acceptors:                   9
##########                        HBond_Donors:                   1
##########                         Heavy_Atoms:                  28
##########                          Grid_Score:          -38.326378
##########                     Grid_vdw_energy:          -38.076763
##########                      Grid_es_energy:           -0.249615
##########           Internal_energy_repulsive:           11.218595

@<TRIPOS>MOLECULE
ZINC000175255939
 48 50 1 0 0
SMALL
USER_CHARGES


@<TRIPOS>ATOM
      1 C1        -13.3326   -5.8153   56.7065 C.3     1  ZINC000175255939    0.0300
      2 O2        -13.8330   -5.0830   55.5569 O.3     1  ZINC000175255939   -0.3600
      3 C3        -14.2845   -3.8382   55.7766 C.2     1  ZINC000175255939    0.4600
      4 O4        -14.7582   -3.5479   56.8496 O.2     1  ZINC000175255939   -0.5000
      5 C5        -14.2005   -2.8026   54.6851 C.3     1  ZINC000175255939   -0.0800
      6 H6        -14.8823   -3.0696   53.8777 H       1  ZINC000175255939    0.1100
      7 C7        -14.5887   -1.4343   55.2491 C.3     1  ZINC000175255939   -0.1200
      8 C8        -14.5033   -0.3830   54.1408 C.3     1  ZINC000175255939   -0.1100
      9 C9        -13.0726   -0.3252   53.6019 C.3     1  ZINC000175255939   -0.1200
     10 C10       -12.6843   -1.6933   53.0378 C.3     1  ZINC000175255939   -0.1000
     11 H11       -13.3661   -1.9603   52.2304 H       1  ZINC000175255939    0.1100
     12 C12       -11.2750   -1.6363   52.5070 C.2     1  ZINC000175255939    0.5100
     13 O13       -10.8810   -2.4889   51.7398 O.2     1  ZINC000175255939   -0.4800
     14 N14       -10.4526   -0.6377   52.8849 N.am    1  ZINC000175255939   -0.6300
     15 C15        -9.1543   -0.5861   52.3974 C.2     1  ZINC000175255939    0.2100
     16 C16        -8.4563    0.5328   52.0532 C.2     1  ZINC000175255939   -0.2600
     17 C17        -7.2003    0.0313   51.6231 C.2     1  ZINC000175255939    0.0900
     18 C18        -6.0454    0.8237   51.1332 C.ar    1  ZINC000175255939   -0.0500
     19 C19        -5.9604    2.1848   51.4207 C.ar    1  ZINC000175255939   -0.0600
     20 C20        -4.8861    2.9188   50.9643 C.ar    1  ZINC000175255939   -0.1300
     21 C21        -3.8897    2.3032   50.2184 C.ar    1  ZINC000175255939    0.1200
     22 O22        -2.8324    3.0287   49.7700 O.3     1  ZINC000175255939   -0.3200
     23 C23        -2.2382    3.9463   50.6902 C.3     1  ZINC000175255939    0.4100
     24 F24        -2.2521    3.3927   51.9751 F       1  ZINC000175255939   -0.2000
     25 F25        -0.9172    4.2017   50.3068 F       1  ZINC000175255939   -0.2000
     26 C26        -3.9718    0.9474   49.9305 C.ar    1  ZINC000175255939   -0.1900
     27 C27        -5.0407    0.2071   50.3897 C.ar    1  ZINC000175255939   -0.0500
     28 N28        -7.2647   -1.2732   51.7452 N.2     1  ZINC000175255939   -0.3600
     29 O29        -8.3365   -1.6279   52.1774 O.3     1  ZINC000175255939    0.1200
     30 C30       -12.7696   -2.7447   54.1461 C.3     1  ZINC000175255939   -0.0900
     31 H31       -13.0000   -6.8042   56.3908 H       1  ZINC000175255939    0.1000
     32 H32       -12.4952   -5.2734   57.1461 H       1  ZINC000175255939    0.0600
     33 H33       -14.1270   -5.9181   57.4458 H       1  ZINC000175255939    0.0600
     34 H34       -15.6080   -1.4757   55.6330 H       1  ZINC000175255939    0.0800
     35 H35       -13.9068   -1.1674   56.0565 H       1  ZINC000175255939    0.0700
     36 H36       -15.1852   -0.6499   53.3335 H       1  ZINC000175255939    0.0700
     37 H37       -14.7800    0.5917   54.5427 H       1  ZINC000175255939    0.0800
     38 H38       -13.0117    0.4239   52.8124 H       1  ZINC000175255939    0.0700
     39 H39       -12.3907   -0.0581   54.4093 H       1  ZINC000175255939    0.0800
     40 H40       -10.7681    0.0449   53.4975 H       1  ZINC000175255939    0.4300
     41 H41        -8.7829    1.5613   52.0973 H       1  ZINC000175255939    0.1800
     42 H42        -6.7355    2.6643   52.0002 H       1  ZINC000175255939    0.1400
     43 H43        -4.8198    3.9735   51.1867 H       1  ZINC000175255939    0.1400
     44 H44        -2.8033    4.8784   50.6901 H       1  ZINC000175255939    0.1900
     45 H45        -3.1954    0.4712   49.3501 H       1  ZINC000175255939    0.1400
     46 H46        -5.1037   -0.8474   50.1657 H       1  ZINC000175255939    0.1400
     47 H47       -12.0878   -2.4777   54.9535 H       1  ZINC000175255939    0.0900
     48 H48       -12.4930   -3.7195   53.7443 H       1  ZINC000175255939    0.0800
@<TRIPOS>BOND
     1     1     2    1
     2     1    31    1
     3     1    32    1
     4     1    33    1
     5     2     3    1
     6     3     4    2
     7     3     5    1
     8     5     6    1
     9     5    30    1
    10     5     7    1
    11     7     8    1
    12     7    34    1
    13     7    35    1
    14     8     9    1
    15     8    36    1
    16     8    37    1
    17     9    10    1
    18     9    38    1
    19     9    39    1
    20    10    11    1
    21    10    12    1
    22    10    30    1
    23    12    13    2
    24    12    14   am
    25    14    15    1
    26    14    40    1
    27    15    29    1
    28    15    16    2
    29    16    17    1
    30    16    41    1
    31    17    18    1
    32    17    28    2
    33    18    27   ar
    34    18    19   ar
    35    19    20   ar
    36    19    42    1
    37    20    21   ar
    38    20    43    1
    39    21    22    1
    40    21    26   ar
    41    22    23    1
    42    23    24    1
    43    23    25    1
    44    23    44    1
    45    26    27   ar
    46    26    45    1
    47    27    46    1
    48    28    29    1
    49    30    47    1
    50    30    48    1
@<TRIPOS>SUBSTRUCTURE
     1 ZINC000175255939        1 TEMP              0 ****  ****    0 ROOT


##########                                Name:    ZINC000482540246
##########                DOCK_Rotatable_Bonds:                  10
##########                         Heavy_Atoms:                  30
##########                    Molecular_Weight:              409.46
##########                DOCK_Rotatable_Bonds:                  10
##########                       Formal_Charge:         2.83122e-07
##########                     HBond_Acceptors:                   7
##########                        HBond_Donors:                   2
##########                         Heavy_Atoms:                  30
##########                          Grid_Score:          -38.249557
##########                     Grid_vdw_energy:          -31.888266
##########                      Grid_es_energy:           -6.361294
##########           Internal_energy_repulsive:           17.535385

@<TRIPOS>MOLECULE
ZINC000482540246
 54 56 1 0 0
SMALL
USER_CHARGES


@<TRIPOS>ATOM
      1 C1        -11.5333   -2.3554   52.3262 C.3     1  ZINC000482540246    0.0400
      2 O2        -10.2004   -2.2290   51.8267 O.3     1  ZINC000482540246   -0.3100
      3 C3         -9.4317   -1.2486   52.3639 C.ar    1  ZINC000482540246    0.3300
      4 C4         -9.9809   -0.3763   53.2946 C.ar    1  ZINC000482540246   -0.1800
      5 C5         -9.1860    0.6197   53.8352 C.ar    1  ZINC000482540246   -0.0100
      6 C6         -9.7438    1.5860   54.8483 C.3     1  ZINC000482540246    0.2000
      7 H7        -10.8271    1.6395   54.7413 H       1  ZINC000482540246    0.1000
      8 C8         -9.1394    2.9725   54.6171 C.3     1  ZINC000482540246   -0.1600
      9 N9         -9.4083    1.1259   56.1981 N.am    1  ZINC000482540246   -0.7400
     10 C10       -10.3133    0.4343   56.9186 C.2     1  ZINC000482540246    0.7100
     11 O11       -11.4088    0.1936   56.4489 O.2     1  ZINC000482540246   -0.5800
     12 N12       -10.0042    0.0096   58.1598 N.am    1  ZINC000482540246   -0.7400
     13 C13       -10.9873   -0.7437   58.9422 C.3     1  ZINC000482540246    0.2100
     14 H14       -11.9884   -0.3732   58.7215 H       1  ZINC000482540246    0.1200
     15 C15       -10.6955   -0.5671   60.4337 C.3     1  ZINC000482540246    0.0500
     16 O16       -11.4188    0.5607   60.9305 O.3     1  ZINC000482540246   -0.3000
     17 C17       -10.7160    1.4779   61.6469 C.ar    1  ZINC000482540246    0.1000
     18 C18        -9.9098    2.3984   60.9955 C.ar    1  ZINC000482540246   -0.1800
     19 C19        -9.1966    3.3303   61.7258 C.ar    1  ZINC000482540246   -0.0900
     20 C20        -9.2859    3.3460   63.1049 C.ar    1  ZINC000482540246   -0.1300
     21 C21       -10.0887    2.4292   63.7589 C.ar    1  ZINC000482540246   -0.1200
     22 C22       -10.8090    1.4982   63.0331 C.ar    1  ZINC000482540246    0.0700
     23 F23       -11.5933    0.6024   63.6716 F       1  ZINC000482540246   -0.1300
     24 C24       -10.9020   -2.2048   58.5833 C.ar    1  ZINC000482540246   -0.1000
     25 C25       -11.9332   -2.8068   57.8866 C.ar    1  ZINC000482540246   -0.0800
     26 C26       -11.8550   -4.1471   57.5574 C.ar    1  ZINC000482540246   -0.1200
     27 C27       -10.7454   -4.8853   57.9244 C.ar    1  ZINC000482540246   -0.1200
     28 C28        -9.7138   -4.2832   58.6202 C.ar    1  ZINC000482540246   -0.1200
     29 C29        -9.7901   -2.9418   58.9457 C.ar    1  ZINC000482540246   -0.1000
     30 C30        -7.8638    0.7079   53.4233 C.ar    1  ZINC000482540246   -0.2100
     31 C31        -7.3842   -0.1937   52.4936 C.ar    1  ZINC000482540246    0.1500
     32 N32        -8.1649   -1.1359   52.0002 N.ar    1  ZINC000482540246   -0.5400
     33 H33       -12.0373   -3.1747   51.8135 H       1  ZINC000482540246    0.1000
     34 H34       -11.5024   -2.5607   53.3963 H       1  ZINC000482540246    0.0600
     35 H35       -12.0769   -1.4272   52.1499 H       1  ZINC000482540246    0.0600
     36 H36       -11.0145   -0.4735   53.5924 H       1  ZINC000482540246    0.1500
     37 H37        -8.0561    2.9190   54.7241 H       1  ZINC000482540246    0.0600
     38 H38        -9.3890    3.3148   53.6128 H       1  ZINC000482540246    0.0700
     39 H39        -9.5429    3.6714   55.3499 H       1  ZINC000482540246    0.0700
     40 H40        -8.5350    1.3190   56.5732 H       1  ZINC000482540246    0.4000
     41 H41        -9.1308    0.2026   58.5349 H       1  ZINC000482540246    0.4000
     42 H42       -11.0041   -1.4629   60.9728 H       1  ZINC000482540246    0.0800
     43 H43        -9.6272   -0.4061   60.5783 H       1  ZINC000482540246    0.0800
     44 H44        -9.8388    2.3871   59.9179 H       1  ZINC000482540246    0.1400
     45 H45        -8.5683    4.0471   61.2179 H       1  ZINC000482540246    0.1300
     46 H46        -8.7275    4.0753   63.6729 H       1  ZINC000482540246    0.1400
     47 H47       -10.1565    2.4432   64.8367 H       1  ZINC000482540246    0.1400
     48 H48       -12.8001   -2.2299   57.6000 H       1  ZINC000482540246    0.1200
     49 H49       -12.6610   -4.6175   57.0138 H       1  ZINC000482540246    0.1200
     50 H50       -10.6846   -5.9326   57.6677 H       1  ZINC000482540246    0.1200
     51 H51        -8.8471   -4.8600   58.9072 H       1  ZINC000482540246    0.1200
     52 H52        -8.9842   -2.4714   59.4893 H       1  ZINC000482540246    0.1200
     53 H53        -7.2168    1.4735   53.8252 H       1  ZINC000482540246    0.1400
     54 H54        -6.3560   -0.1295   52.1698 H       1  ZINC000482540246    0.1600
@<TRIPOS>BOND
     1     1     2    1
     2     1    33    1
     3     1    34    1
     4     1    35    1
     5     2     3    1
     6     3    32   ar
     7     3     4   ar
     8     4     5   ar
     9     4    36    1
    10     5     6    1
    11     5    30   ar
    12     6     7    1
    13     6     8    1
    14     6     9    1
    15     8    37    1
    16     8    38    1
    17     8    39    1
    18     9    10   am
    19     9    40    1
    20    10    11    2
    21    10    12   am
    22    12    13    1
    23    12    41    1
    24    13    14    1
    25    13    15    1
    26    13    24    1
    27    15    16    1
    28    15    42    1
    29    15    43    1
    30    16    17    1
    31    17    22   ar
    32    17    18   ar
    33    18    19   ar
    34    18    44    1
    35    19    20   ar
    36    19    45    1
    37    20    21   ar
    38    20    46    1
    39    21    22   ar
    40    21    47    1
    41    22    23    1
    42    24    29   ar
    43    24    25   ar
    44    25    26   ar
    45    25    48    1
    46    26    27   ar
    47    26    49    1
    48    27    28   ar
    49    27    50    1
    50    28    29   ar
    51    28    51    1
    52    29    52    1
    53    30    31   ar
    54    30    53    1
    55    31    32   ar
    56    31    54    1
@<TRIPOS>SUBSTRUCTURE
     1 ZINC000482540246        1 TEMP              0 ****  ****    0 ROOT


##########                                Name:    ZINC000479580180
##########                DOCK_Rotatable_Bonds:                   5
##########                         Heavy_Atoms:                  30
##########                    Molecular_Weight:             404.444
##########                DOCK_Rotatable_Bonds:                   5
##########                       Formal_Charge:           0.0299995
##########                     HBond_Acceptors:                   7
##########                        HBond_Donors:                   1
##########                         Heavy_Atoms:                  30
##########                          Grid_Score:          -38.216900
##########                     Grid_vdw_energy:          -38.750416
##########                      Grid_es_energy:            0.533517
##########           Internal_energy_repulsive:           15.295591

@<TRIPOS>MOLECULE
ZINC000479580180
 51 55 1 0 0
SMALL
USER_CHARGES


@<TRIPOS>ATOM
      1 O1        -13.3168   -5.4824   55.8317 O.2     1  ZINC000479580180   -0.5200
      2 C2        -13.2013   -4.3088   56.1153 C.2     1  ZINC000479580180    0.5200
      3 C3        -13.3716   -3.8585   57.5433 C.3     1  ZINC000479580180   -0.0700
      4 C4        -12.0185   -3.5901   58.1501 C.2     1  ZINC000479580180   -0.1600
      5 C5        -10.8862   -4.2692   57.9233 C.2     1  ZINC000479580180    0.0300
      6 O6         -9.8781   -3.7426   58.6410 O.3     1  ZINC000479580180   -0.1900
      7 C7        -10.3052   -2.6931   59.3714 C.ar    1  ZINC000479580180    0.0800
      8 C8         -9.6775   -1.8262   60.2565 C.ar    1  ZINC000479580180   -0.1400
      9 C9        -10.4040   -0.8215   60.8645 C.ar    1  ZINC000479580180    0.1300
     10 F10        -9.7910    0.0208   61.7248 F       1  ZINC000479580180   -0.1300
     11 C11       -11.7590   -0.6684   60.6000 C.ar    1  ZINC000479580180   -0.1600
     12 C12       -12.3940   -1.5127   59.7317 C.ar    1  ZINC000479580180   -0.0400
     13 C13       -11.6748   -2.5280   59.1038 C.ar    1  ZINC000479580180   -0.1200
     14 N14       -12.9152   -3.4082   55.1542 N.am    1  ZINC000479580180   -0.6200
     15 C15       -12.7605   -1.9849   55.4843 C.3     1  ZINC000479580180    0.1100
     16 C16       -11.4090   -1.4993   54.9509 C.3     1  ZINC000479580180   -0.1300
     17 C17       -11.3130   -1.8119   53.4558 C.3     1  ZINC000479580180   -0.0100
     18 C18        -9.9987   -1.3049   52.9203 C.2     1  ZINC000479580180    0.3000
     19 N19        -9.4244   -0.1766   53.2441 N.2     1  ZINC000479580180   -0.5300
     20 C20        -8.2691   -0.0484   52.5780 C.2     1  ZINC000479580180    0.2700
     21 C21        -7.3336    1.0991   52.6814 C.ar    1  ZINC000479580180   -0.0200
     22 C22        -6.2382    1.1874   51.8249 C.ar    1  ZINC000479580180   -0.0800
     23 C23        -5.3717    2.2570   51.9251 C.ar    1  ZINC000479580180   -0.1300
     24 C24        -5.5887    3.2397   52.8739 C.ar    1  ZINC000479580180   -0.1000
     25 C25        -6.6746    3.1569   53.7268 C.ar    1  ZINC000479580180   -0.1200
     26 C26        -7.5508    2.0948   53.6315 C.ar    1  ZINC000479580180   -0.0800
     27 N27        -8.1010   -1.1080   51.8177 N.2     1  ZINC000479580180   -0.3000
     28 N28        -9.2130   -1.9388   52.0314 N.pl3   1  ZINC000479580180   -0.4800
     29 C29       -11.4009   -3.3248   53.2427 C.3     1  ZINC000479580180   -0.1400
     30 C30       -12.7463   -3.8320   53.7576 C.3     1  ZINC000479580180    0.1200
     31 H31       -13.9682   -2.9465   57.5680 H       1  ZINC000479580180    0.1100
     32 H32       -13.8768   -4.6387   58.1126 H       1  ZINC000479580180    0.1100
     33 H33       -10.7959   -5.1169   57.2601 H       1  ZINC000479580180    0.2100
     34 H34        -8.6244   -1.9377   60.4688 H       1  ZINC000479580180    0.1500
     35 H35       -12.3143    0.1221   61.0829 H       1  ZINC000479580180    0.1400
     36 H36       -13.4479   -1.3902   59.5295 H       1  ZINC000479580180    0.1300
     37 H37       -13.5636   -1.4127   55.0199 H       1  ZINC000479580180    0.0800
     38 H38       -12.7946   -1.8548   56.5659 H       1  ZINC000479580180    0.0900
     39 H39       -11.3229   -0.4235   55.1039 H       1  ZINC000479580180    0.0900
     40 H40       -10.6043   -2.0082   55.4815 H       1  ZINC000479580180    0.0700
     41 H41       -12.1325   -1.3228   52.9292 H       1  ZINC000479580180    0.1200
     42 H42        -6.0674    0.4203   51.0842 H       1  ZINC000479580180    0.1400
     43 H43        -4.5223    2.3266   51.2617 H       1  ZINC000479580180    0.1300
     44 H44        -4.9077    4.0746   52.9494 H       1  ZINC000479580180    0.1300
     45 H45        -6.8392    3.9268   54.4661 H       1  ZINC000479580180    0.1300
     46 H46        -8.3984    2.0312   54.2978 H       1  ZINC000479580180    0.1300
     47 H47        -9.3838   -2.7982   51.6152 H       1  ZINC000479580180    0.4400
     48 H48       -11.3090   -3.5483   52.1798 H       1  ZINC000479580180    0.0900
     49 H49       -10.5963   -3.8166   53.7892 H       1  ZINC000479580180    0.0700
     50 H50       -12.7734   -4.9201   53.6987 H       1  ZINC000479580180    0.1000
     51 H51       -13.5507   -3.4112   53.1543 H       1  ZINC000479580180    0.0800
@<TRIPOS>BOND
     1     1     2    2
     2     2     3    1
     3     2    14   am
     4     3     4    1
     5     3    31    1
     6     3    32    1
     7     4    13    1
     8     4     5    2
     9     5     6    1
    10     5    33    1
    11     6     7    1
    12     7    13   ar
    13     7     8   ar
    14     8     9   ar
    15     8    34    1
    16     9    10    1
    17     9    11   ar
    18    11    12   ar
    19    11    35    1
    20    12    13   ar
    21    12    36    1
    22    14    30    1
    23    14    15    1
    24    15    16    1
    25    15    37    1
    26    15    38    1
    27    16    17    1
    28    16    39    1
    29    16    40    1
    30    17    18    1
    31    17    29    1
    32    17    41    1
    33    18    28    1
    34    18    19    2
    35    19    20    1
    36    20    21    1
    37    20    27    2
    38    21    26   ar
    39    21    22   ar
    40    22    23   ar
    41    22    42    1
    42    23    24   ar
    43    23    43    1
    44    24    25   ar
    45    24    44    1
    46    25    26   ar
    47    25    45    1
    48    26    46    1
    49    27    28    1
    50    28    47    1
    51    29    30    1
    52    29    48    1
    53    29    49    1
    54    30    50    1
    55    30    51    1
@<TRIPOS>SUBSTRUCTURE
     1 ZINC000479580180        1 TEMP              0 ****  ****    0 ROOT


##########                                Name:    ZINC000492313853
##########                DOCK_Rotatable_Bonds:                   8
##########                         Heavy_Atoms:                  30
##########                    Molecular_Weight:             418.422
##########                DOCK_Rotatable_Bonds:                   8
##########                       Formal_Charge:          -0.0100008
##########                     HBond_Acceptors:                  10
##########                        HBond_Donors:                   2
##########                         Heavy_Atoms:                  30
##########                          Grid_Score:          -38.200676
##########                     Grid_vdw_energy:          -37.367512
##########                      Grid_es_energy:           -0.833166
##########           Internal_energy_repulsive:           14.657856

@<TRIPOS>MOLECULE
ZINC000492313853
 51 53 1 0 0
SMALL
USER_CHARGES


@<TRIPOS>ATOM
      1 C1         -1.4566    5.0982   51.0487 C.3     1  ZINC000492313853    0.0900
      2 N2         -1.4081    3.6710   50.7213 N.pl3   1  ZINC000492313853   -0.6200
      3 C3         -0.1171    3.0111   50.5119 C.3     1  ZINC000492313853    0.1000
      4 C4         -2.5871    2.9431   50.6095 C.ar    1  ZINC000492313853    0.4100
      5 C5         -2.5357    1.5971   50.2625 C.ar    1  ZINC000492313853   -0.2400
      6 C6         -3.7166    0.8845   50.1552 C.ar    1  ZINC000492313853   -0.0100
      7 C7         -4.9133    1.5446   50.3994 C.ar    1  ZINC000492313853   -0.2300
      8 C8         -6.2240    0.8081   50.2947 C.3     1  ZINC000492313853    0.2000
      9 N9         -7.2055    1.4286   51.1879 N.am    1  ZINC000492313853   -0.7300
     10 C10        -7.9245    0.6645   52.0339 C.2     1  ZINC000492313853    0.7100
     11 O11        -7.7575   -0.5397   52.0569 O.2     1  ZINC000492313853   -0.5600
     12 N12        -8.8287    1.2352   52.8545 N.am    1  ZINC000492313853   -0.6600
     13 C13        -9.5741    0.4441   53.7290 C.2     1  ZINC000492313853    0.3300
     14 C14       -10.3239   -0.6374   53.3902 C.2     1  ZINC000492313853   -0.2600
     15 C15       -10.9078   -1.1416   54.5672 C.2     1  ZINC000492313853    0.1200
     16 C16       -11.8055   -2.3200   54.6583 C.ar    1  ZINC000492313853   -0.0100
     17 C17       -11.9334   -3.1868   53.5752 C.ar    1  ZINC000492313853   -0.0600
     18 C18       -12.7694   -4.2815   53.6654 C.ar    1  ZINC000492313853   -0.1200
     19 C19       -13.4794   -4.5186   54.8283 C.ar    1  ZINC000492313853   -0.0700
     20 C20       -13.3561   -3.6611   55.9070 C.ar    1  ZINC000492313853   -0.1900
     21 C21       -14.1325   -3.9261   57.1711 C.3     1  ZINC000492313853    0.5100
     22 F22       -14.3567   -5.3010   57.3011 F       1  ZINC000492313853   -0.1800
     23 F23       -13.4018   -3.4667   58.2721 F       1  ZINC000492313853   -0.1800
     24 F24       -15.3597   -3.2569   57.1136 F       1  ZINC000492313853   -0.1800
     25 C25       -12.5192   -2.5666   55.8295 C.ar    1  ZINC000492313853   -0.0400
     26 N26       -10.5198   -0.3869   55.5732 N.2     1  ZINC000492313853   -0.2700
     27 N27        -9.6763    0.6131   55.0733 N.pl3   1  ZINC000492313853   -0.3900
     28 C28        -9.0255    1.6633   55.8606 C.3     1  ZINC000492313853    0.1000
     29 C29        -4.8905    2.8825   50.7396 C.ar    1  ZINC000492313853    0.1700
     30 N30        -3.7486    3.5360   50.8395 N.ar    1  ZINC000492313853   -0.5400
     31 H31        -1.5145    5.6802   50.1290 H       1  ZINC000492313853    0.0600
     32 H32        -2.3344    5.3005   51.6626 H       1  ZINC000492313853    0.0700
     33 H33        -0.5571    5.3757   51.5983 H       1  ZINC000492313853    0.0700
     34 H34         0.6867    3.7361   50.6403 H       1  ZINC000492313853    0.0700
     35 H35         0.0011    2.2056   51.2367 H       1  ZINC000492313853    0.0600
     36 H36        -0.0783    2.6005   49.5029 H       1  ZINC000492313853    0.0600
     37 H37        -1.5869    1.1149   50.0791 H       1  ZINC000492313853    0.1300
     38 H38        -3.7078   -0.1617   49.8871 H       1  ZINC000492313853    0.1400
     39 H39        -6.5863    0.8554   49.2678 H       1  ZINC000492313853    0.0800
     40 H40        -6.0793   -0.2335   50.5813 H       1  ZINC000492313853    0.0800
     41 H41        -7.3380    2.3894   51.1704 H       1  ZINC000492313853    0.4000
     42 H42        -8.9610    2.1960   52.8370 H       1  ZINC000492313853    0.4100
     43 H43       -10.4497   -1.0380   52.3952 H       1  ZINC000492313853    0.1800
     44 H44       -11.3798   -3.0023   52.6664 H       1  ZINC000492313853    0.1400
     45 H45       -12.8695   -4.9539   52.8262 H       1  ZINC000492313853    0.1400
     46 H46       -14.1326   -5.3761   54.8947 H       1  ZINC000492313853    0.1400
     47 H47       -12.4236   -1.8978   56.6721 H       1  ZINC000492313853    0.1400
     48 H48        -8.0521    1.3112   56.2018 H       1  ZINC000492313853    0.0800
     49 H49        -8.8945    2.5519   55.2431 H       1  ZINC000492313853    0.0800
     50 H50        -9.6460    1.9082   56.7227 H       1  ZINC000492313853    0.1000
     51 H51        -5.8192    3.3999   50.9304 H       1  ZINC000492313853    0.1600
@<TRIPOS>BOND
     1     1     2    1
     2     1    31    1
     3     1    32    1
     4     1    33    1
     5     2     3    1
     6     2     4    1
     7     3    34    1
     8     3    35    1
     9     3    36    1
    10     4    30   ar
    11     4     5   ar
    12     5     6   ar
    13     5    37    1
    14     6     7   ar
    15     6    38    1
    16     7     8    1
    17     7    29   ar
    18     8     9    1
    19     8    39    1
    20     8    40    1
    21     9    10   am
    22     9    41    1
    23    10    11    2
    24    10    12   am
    25    12    13    1
    26    12    42    1
    27    13    27    1
    28    13    14    2
    29    14    15    1
    30    14    43    1
    31    15    16    1
    32    15    26    2
    33    16    25   ar
    34    16    17   ar
    35    17    18   ar
    36    17    44    1
    37    18    19   ar
    38    18    45    1
    39    19    20   ar
    40    19    46    1
    41    20    21    1
    42    20    25   ar
    43    21    22    1
    44    21    23    1
    45    21    24    1
    46    25    47    1
    47    26    27    1
    48    27    28    1
    49    28    48    1
    50    28    49    1
    51    28    50    1
    52    29    30   ar
    53    29    51    1
@<TRIPOS>SUBSTRUCTURE
     1 ZINC000492313853        1 TEMP              0 ****  ****    0 ROOT


##########                                Name:    ZINC000426805817
##########                DOCK_Rotatable_Bonds:                   6
##########                         Heavy_Atoms:                  26
##########                    Molecular_Weight:             412.286
##########                DOCK_Rotatable_Bonds:                   6
##########                       Formal_Charge:          -0.0100001
##########                     HBond_Acceptors:                   5
##########                        HBond_Donors:                   4
##########                         Heavy_Atoms:                  26
##########                          Grid_Score:          -38.184753
##########                     Grid_vdw_energy:          -33.876640
##########                      Grid_es_energy:           -4.308115
##########           Internal_energy_repulsive:            4.172166

@<TRIPOS>MOLECULE
ZINC000426805817
 44 47 1 0 0
SMALL
USER_CHARGES


@<TRIPOS>ATOM
      1 O1         -3.5816    3.9959   51.9463 O.co2   1  ZINC000426805817   -0.6300
      2 C2         -3.0136    3.8261   50.8809 C.2     1  ZINC000426805817    0.5000
      3 O3         -2.2633    4.6835   50.4468 O.co2   1  ZINC000426805817   -0.6800
      4 C4         -3.2343    2.5541   50.1036 C.3     1  ZINC000426805817   -0.0500
      5 H5         -3.1272    1.6980   50.7698 H       1  ZINC000426805817    0.1300
      6 C6         -4.6418    2.5606   49.5037 C.3     1  ZINC000426805817   -0.0500
      7 C7         -5.4664    1.4746   50.1454 C.2     1  ZINC000426805817   -0.1900
      8 C8         -5.2912    0.1511   50.0059 C.2     1  ZINC000426805817    0.0500
      9 N9         -6.2301   -0.5235   50.7377 N.pl3   1  ZINC000426805817   -0.5900
     10 C10        -7.0538    0.3727   51.3827 C.ar    1  ZINC000426805817    0.1100
     11 C11        -8.1439    0.2275   52.2338 C.ar    1  ZINC000426805817   -0.1200
     12 C12        -8.7799    1.3430   52.7327 C.ar    1  ZINC000426805817   -0.0700
     13 C13        -8.3437    2.6175   52.3946 C.ar    1  ZINC000426805817   -0.1100
     14 Br14       -9.2344    4.1322   53.0933 Br      1  ZINC000426805817   -0.0400
     15 C15        -7.2658    2.7842   51.5538 C.ar    1  ZINC000426805817   -0.0400
     16 C16        -6.6073    1.6632   51.0448 C.ar    1  ZINC000426805817   -0.1000
     17 N17        -2.2422    2.4616   49.0241 N.4     1  ZINC000426805817   -0.4800
     18 H18        -2.7167    2.3872   48.1367 H       1  ZINC000426805817    0.4000
     19 H19        -1.6632    3.2878   49.0277 H       1  ZINC000426805817    0.4200
     20 C20        -1.4024    1.2742   49.2313 C.3     1  ZINC000426805817    0.0400
     21 C21        -0.0809    1.6908   49.8238 C.ar    1  ZINC000426805817   -0.1600
     22 C22         1.0811    1.6096   49.0638 C.ar    1  ZINC000426805817    0.1100
     23 N23         1.3447    1.2011   47.7756 N.pl3   1  ZINC000426805817   -0.5900
     24 C24         2.6824    1.3221   47.5138 C.2     1  ZINC000426805817    0.0600
     25 C25         3.3188    1.8010   48.5943 C.2     1  ZINC000426805817   -0.2000
     26 C26         2.3061    2.0033   49.6331 C.ar    1  ZINC000426805817   -0.1100
     27 C27         2.3449    2.4694   50.9484 C.ar    1  ZINC000426805817   -0.0400
     28 C28         1.1910    2.5409   51.6771 C.ar    1  ZINC000426805817   -0.1500
     29 C29        -0.0206    2.1587   51.1184 C.ar    1  ZINC000426805817   -0.0700
     30 H30        -5.1099    3.5279   49.6857 H       1  ZINC000426805817    0.1200
     31 H31        -4.5798    2.3832   48.4300 H       1  ZINC000426805817    0.0900
     32 H32        -4.5231   -0.3126   49.4048 H       1  ZINC000426805817    0.1700
     33 H33        -6.3046   -1.4890   50.7939 H       1  ZINC000426805817    0.4200
     34 H34        -8.4919   -0.7589   52.5030 H       1  ZINC000426805817    0.1300
     35 H35        -9.6264    1.2252   53.3929 H       1  ZINC000426805817    0.1400
     36 H36        -6.9291    3.7767   51.2929 H       1  ZINC000426805817    0.1400
     37 H37        -1.9055    0.5876   49.9121 H       1  ZINC000426805817    0.1500
     38 H38        -1.2320    0.7785   48.2756 H       1  ZINC000426805817    0.1300
     39 H39         0.6812    0.8755   47.1474 H       1  ZINC000426805817    0.4300
     40 H40         3.1559    1.0695   46.5766 H       1  ZINC000426805817    0.1800
     41 H41         4.3769    1.9991   48.6813 H       1  ZINC000426805817    0.1500
     42 H42         3.2835    2.7721   51.3887 H       1  ZINC000426805817    0.1300
     43 H43         1.2216    2.9015   52.6947 H       1  ZINC000426805817    0.1300
     44 H44        -0.9240    2.2208   51.7070 H       1  ZINC000426805817    0.1300
@<TRIPOS>BOND
     1     1     2   ar
     2     2     3   ar
     3     2     4    1
     4     4     5    1
     5     4     6    1
     6     4    17    1
     7     6     7    1
     8     6    30    1
     9     6    31    1
    10     7    16    1
    11     7     8    2
    12     8     9    1
    13     8    32    1
    14     9    10    1
    15     9    33    1
    16    10    16   ar
    17    10    11   ar
    18    11    12   ar
    19    11    34    1
    20    12    13   ar
    21    12    35    1
    22    13    14    1
    23    13    15   ar
    24    15    16   ar
    25    15    36    1
    26    17    18    1
    27    17    19    1
    28    17    20    1
    29    20    21    1
    30    20    37    1
    31    20    38    1
    32    21    29   ar
    33    21    22   ar
    34    22    26   ar
    35    22    23    1
    36    23    24    1
    37    23    39    1
    38    24    25    2
    39    24    40    1
    40    25    26    1
    41    25    41    1
    42    26    27   ar
    43    27    28   ar
    44    27    42    1
    45    28    29   ar
    46    28    43    1
    47    29    44    1
@<TRIPOS>SUBSTRUCTURE
     1 ZINC000426805817        1 TEMP              0 ****  ****    0 ROOT


##########                                Name:    ZINC000013809319
##########                DOCK_Rotatable_Bonds:                  10
##########                         Heavy_Atoms:                  30
##########                    Molecular_Weight:             407.469
##########                DOCK_Rotatable_Bonds:                  10
##########                       Formal_Charge:         -0.00999978
##########                     HBond_Acceptors:                   7
##########                        HBond_Donors:                   1
##########                         Heavy_Atoms:                  30
##########                          Grid_Score:          -38.179432
##########                     Grid_vdw_energy:          -38.147835
##########                      Grid_es_energy:           -0.031597
##########           Internal_energy_repulsive:           16.509262

@<TRIPOS>MOLECULE
ZINC000013809319
 55 57 1 0 0
SMALL
USER_CHARGES


@<TRIPOS>ATOM
      1 C1        -12.3855   -3.1626   53.0973 C.3     1  ZINC000013809319   -0.1500
      2 C2        -10.9873   -2.7251   52.6563 C.3     1  ZINC000013809319    0.0500
      3 O3        -10.6572   -1.4835   53.2818 O.3     1  ZINC000013809319   -0.3100
      4 C4         -9.5814   -0.8140   52.7936 C.ar    1  ZINC000013809319    0.1500
      5 C5         -8.4884   -1.5199   52.3066 C.ar    1  ZINC000013809319   -0.2200
      6 C6         -7.3953   -0.8439   51.8101 C.ar    1  ZINC000013809319   -0.0300
      7 C7         -7.3869    0.5518   51.7966 C.ar    1  ZINC000013809319   -0.1100
      8 C8         -6.2148    1.2815   51.2636 C.2     1  ZINC000013809319    0.2300
      9 C9         -5.6361    2.3040   51.9979 C.2     1  ZINC000013809319   -0.2900
     10 C10        -4.5241    2.9703   51.4544 C.2     1  ZINC000013809319    0.5300
     11 O11        -3.9820    3.8766   52.0659 O.2     1  ZINC000013809319   -0.5400
     12 N12        -4.0674    2.5880   50.2435 N.am    1  ZINC000013809319   -0.5100
     13 C13        -2.9099    3.2652   49.6539 C.3     1  ZINC000013809319    0.0700
     14 C14        -1.6434    2.7027   50.2463 C.2     1  ZINC000013809319    0.5000
     15 O15        -1.3788    2.9023   51.4129 O.2     1  ZINC000013809319   -0.5200
     16 N16        -0.8050    1.9777   49.4795 N.am    1  ZINC000013809319   -0.7200
     17 C17         0.4253    1.4294   50.0557 C.3     1  ZINC000013809319    0.1300
     18 C18         1.4922    2.5244   50.1164 C.3     1  ZINC000013809319   -0.0800
     19 C19         2.7375    1.9769   50.7649 C.ar    1  ZINC000013809319   -0.1200
     20 C20         3.6992    1.3508   49.9960 C.ar    1  ZINC000013809319   -0.0800
     21 C21         4.8418    0.8477   50.5907 C.ar    1  ZINC000013809319   -0.1500
     22 C22         5.0250    0.9704   51.9554 C.ar    1  ZINC000013809319   -0.0800
     23 C23         4.0662    1.5962   52.7289 C.ar    1  ZINC000013809319   -0.2100
     24 C24         2.9216    2.1064   52.1341 C.ar    1  ZINC000013809319    0.1300
     25 O25         1.9771    2.7223   52.8925 O.3     1  ZINC000013809319   -0.3100
     26 C26         2.2092    2.7742   54.3017 C.3     1  ZINC000013809319    0.0300
     27 C27        -4.6710    1.5856   49.5738 C.2     1  ZINC000013809319    0.3900
     28 N28        -5.7003    0.9534   50.0656 N.2     1  ZINC000013809319   -0.5300
     29 C29        -8.4868    1.2578   52.2867 C.ar    1  ZINC000013809319   -0.0500
     30 C30        -9.5788    0.5752   52.7769 C.ar    1  ZINC000013809319   -0.1600
     31 H31       -12.4030   -3.2855   54.1803 H       1  ZINC000013809319    0.0700
     32 H32       -13.1122   -2.4044   52.8059 H       1  ZINC000013809319    0.0700
     33 H33       -12.6373   -4.1097   52.6201 H       1  ZINC000013809319    0.0800
     34 H34       -10.2605   -3.4834   52.9477 H       1  ZINC000013809319    0.0600
     35 H35       -10.9697   -2.6023   51.5733 H       1  ZINC000013809319    0.0600
     36 H36        -8.4955   -2.5999   52.3176 H       1  ZINC000013809319    0.1300
     37 H37        -6.5458   -1.3933   51.4319 H       1  ZINC000013809319    0.1400
     38 H38        -6.0300    2.5825   52.9643 H       1  ZINC000013809319    0.1600
     39 H39        -2.9075    3.1082   48.5753 H       1  ZINC000013809319    0.1300
     40 H40        -2.9669    4.3330   49.8656 H       1  ZINC000013809319    0.1300
     41 H41        -1.0161    1.8191   48.5461 H       1  ZINC000013809319    0.4000
     42 H42         0.2232    1.0629   51.0621 H       1  ZINC000013809319    0.0700
     43 H43         0.7827    0.6080   49.4347 H       1  ZINC000013809319    0.0700
     44 H44         1.7262    2.8601   49.1062 H       1  ZINC000013809319    0.0800
     45 H45         1.1176    3.3647   50.7009 H       1  ZINC000013809319    0.0800
     46 H46         3.5583    1.2538   48.9297 H       1  ZINC000013809319    0.1300
     47 H47         5.5923    0.3579   49.9879 H       1  ZINC000013809319    0.1300
     48 H48         5.9181    0.5764   52.4176 H       1  ZINC000013809319    0.1300
     49 H49         4.2097    1.6915   53.7950 H       1  ZINC000013809319    0.1300
     50 H50         3.1376    3.3106   54.4975 H       1  ZINC000013809319    0.0600
     51 H51         1.3815    3.2912   54.7874 H       1  ZINC000013809319    0.1000
     52 H52         2.2853    1.7606   54.6949 H       1  ZINC000013809319    0.0600
     53 H53        -4.2895    1.2957   48.6059 H       1  ZINC000013809319    0.2000
     54 H54        -8.4837    2.3378   52.2778 H       1  ZINC000013809319    0.1400
     55 H55       -10.4303    1.1208   53.1560 H       1  ZINC000013809319    0.1400
@<TRIPOS>BOND
     1     1     2    1
     2     1    31    1
     3     1    32    1
     4     1    33    1
     5     2     3    1
     6     2    34    1
     7     2    35    1
     8     3     4    1
     9     4    30   ar
    10     4     5   ar
    11     5     6   ar
    12     5    36    1
    13     6     7   ar
    14     6    37    1
    15     7     8    1
    16     7    29   ar
    17     8    28    1
    18     8     9    2
    19     9    10    1
    20     9    38    1
    21    10    11    2
    22    10    12   am
    23    12    13    1
    24    12    27    1
    25    13    14    1
    26    13    39    1
    27    13    40    1
    28    14    15    2
    29    14    16   am
    30    16    17    1
    31    16    41    1
    32    17    18    1
    33    17    42    1
    34    17    43    1
    35    18    19    1
    36    18    44    1
    37    18    45    1
    38    19    24   ar
    39    19    20   ar
    40    20    21   ar
    41    20    46    1
    42    21    22   ar
    43    21    47    1
    44    22    23   ar
    45    22    48    1
    46    23    24   ar
    47    23    49    1
    48    24    25    1
    49    25    26    1
    50    26    50    1
    51    26    51    1
    52    26    52    1
    53    27    28    2
    54    27    53    1
    55    29    30   ar
    56    29    54    1
    57    30    55    1
@<TRIPOS>SUBSTRUCTURE
     1 ZINC000013809319        1 TEMP              0 ****  ****    0 ROOT


##########                                Name:    ZINC000650955167
##########                DOCK_Rotatable_Bonds:                   9
##########                         Heavy_Atoms:                  26
##########                    Molecular_Weight:             361.484
##########                DOCK_Rotatable_Bonds:                   9
##########                       Formal_Charge:        -7.07805e-07
##########                     HBond_Acceptors:                   6
##########                        HBond_Donors:                   2
##########                         Heavy_Atoms:                  26
##########                          Grid_Score:          -38.157051
##########                     Grid_vdw_energy:          -37.121891
##########                      Grid_es_energy:           -1.035162
##########           Internal_energy_repulsive:           15.203255

@<TRIPOS>MOLECULE
ZINC000650955167
 57 59 1 0 0
SMALL
USER_CHARGES


@<TRIPOS>ATOM
      1 C1        -10.5778   -0.0379   57.8457 C.3     1  ZINC000650955167    0.0200
      2 O2        -10.3992   -0.8476   56.6817 O.3     1  ZINC000650955167   -0.3200
      3 C3        -11.1354   -1.9874   56.6042 C.ar    1  ZINC000650955167    0.1300
      4 C4        -10.7906   -3.0905   57.3712 C.ar    1  ZINC000650955167   -0.2000
      5 C5        -11.5410   -4.2479   57.2909 C.ar    1  ZINC000650955167   -0.0800
      6 C6        -12.6342   -4.3072   56.4468 C.ar    1  ZINC000650955167   -0.1500
      7 C7        -12.9796   -3.2090   55.6807 C.ar    1  ZINC000650955167   -0.0800
      8 C8        -12.2364   -2.0475   55.7619 C.ar    1  ZINC000650955167   -0.1100
      9 C9        -12.6136   -0.8508   54.9273 C.3     1  ZINC000650955167   -0.0800
     10 C10       -12.2365   -1.1082   53.4670 C.3     1  ZINC000650955167    0.1800
     11 H11       -12.1778   -2.1822   53.2908 H       1  ZINC000650955167    0.0900
     12 N12       -10.9366   -0.4949   53.1830 N.am    1  ZINC000650955167   -0.7300
     13 C13        -9.9237   -1.2497   52.7132 C.2     1  ZINC000650955167    0.7400
     14 O14       -10.0892   -2.4393   52.5236 O.2     1  ZINC000650955167   -0.5800
     15 N15        -8.7275   -0.6859   52.4535 N.am    1  ZINC000650955167   -0.6700
     16 C16        -8.1478    0.6620   52.5543 C.3     1  ZINC000650955167    0.1100
     17 C17        -7.1872    0.2746   51.4214 C.3     1  ZINC000650955167    0.0300
     18 N18        -5.8129    0.7604   51.6044 N.3     1  ZINC000650955167   -0.5100
     19 C19        -5.7950    2.2172   51.8554 C.3     1  ZINC000650955167    0.0400
     20 C20        -4.4873    2.7168   51.1921 C.3     1  ZINC000650955167   -0.1600
     21 C21        -4.4192    1.8263   49.9237 C.3     1  ZINC000650955167    0.0800
     22 H22        -5.0385    2.2406   49.1282 H       1  ZINC000650955167    0.0600
     23 O23        -3.0679    1.6762   49.4836 O.3     1  ZINC000650955167   -0.5600
     24 C24        -4.9900    0.4789   50.4139 C.3     1  ZINC000650955167    0.0500
     25 C25        -7.4252   -1.1491   51.9508 C.3     1  ZINC000650955167    0.1400
     26 C26       -13.2992   -0.4982   52.5508 C.3     1  ZINC000650955167   -0.1100
     27 C27       -12.9433    0.9608   52.2578 C.3     1  ZINC000650955167   -0.1400
     28 C28       -13.3529   -1.2835   51.2387 C.3     1  ZINC000650955167   -0.1500
     29 H29        -9.9330    0.8386   57.7809 H       1  ZINC000650955167    0.1000
     30 H30       -11.6182    0.2805   57.9107 H       1  ZINC000650955167    0.0600
     31 H31       -10.3183   -0.6151   58.7331 H       1  ZINC000650955167    0.0600
     32 H32        -9.9363   -3.0450   58.0303 H       1  ZINC000650955167    0.1300
     33 H33       -11.2731   -5.1071   57.8878 H       1  ZINC000650955167    0.1200
     34 H34       -13.2192   -5.2129   56.3851 H       1  ZINC000650955167    0.1200
     35 H35       -13.8338   -3.2578   55.0217 H       1  ZINC000650955167    0.1300
     36 H36       -13.6878   -0.6808   55.0006 H       1  ZINC000650955167    0.0900
     37 H37       -12.0810    0.0281   55.2906 H       1  ZINC000650955167    0.0800
     38 H38       -10.8051    0.4543   53.3332 H       1  ZINC000650955167    0.4000
     39 H39        -8.8436    1.4552   52.2813 H       1  ZINC000650955167    0.0700
     40 H40        -7.6462    0.8488   53.5038 H       1  ZINC000650955167    0.0900
     41 H41        -7.5792    0.4577   50.4209 H       1  ZINC000650955167    0.0900
     42 H42        -6.6604    2.6926   51.3935 H       1  ZINC000650955167    0.0500
     43 H43        -5.7777    2.4176   52.9267 H       1  ZINC000650955167    0.0900
     44 H44        -4.5627    3.7711   50.9255 H       1  ZINC000650955167    0.0800
     45 H45        -3.6287    2.5400   51.8400 H       1  ZINC000650955167    0.0900
     46 H46        -2.6334    2.5098   49.2569 H       1  ZINC000650955167    0.3800
     47 H47        -4.1751   -0.1953   50.6773 H       1  ZINC000650955167    0.0900
     48 H48        -5.6068    0.0318   49.6341 H       1  ZINC000650955167    0.0700
     49 H49        -6.7309   -1.4411   52.7386 H       1  ZINC000650955167    0.0900
     50 H50        -7.5077   -1.8973   51.1624 H       1  ZINC000650955167    0.0800
     51 H51       -14.2714   -0.5436   53.0414 H       1  ZINC000650955167    0.0700
     52 H52       -11.9711    1.0061   51.7670 H       1  ZINC000650955167    0.0600
     53 H53       -13.7004    1.3953   51.6049 H       1  ZINC000650955167    0.0400
     54 H54       -12.9050    1.5201   53.1924 H       1  ZINC000650955167    0.0500
     55 H55       -13.6064   -2.3228   51.4475 H       1  ZINC000650955167    0.0600
     56 H56       -14.1099   -0.8489   50.5860 H       1  ZINC000650955167    0.0600
     57 H57       -12.3806   -1.2381   50.7481 H       1  ZINC000650955167    0.0600
@<TRIPOS>BOND
     1     1     2    1
     2     1    29    1
     3     1    30    1
     4     1    31    1
     5     2     3    1
     6     3     8   ar
     7     3     4   ar
     8     4     5   ar
     9     4    32    1
    10     5     6   ar
    11     5    33    1
    12     6     7   ar
    13     6    34    1
    14     7     8   ar
    15     7    35    1
    16     8     9    1
    17     9    10    1
    18     9    36    1
    19     9    37    1
    20    10    11    1
    21    10    12    1
    22    10    26    1
    23    12    13   am
    24    12    38    1
    25    13    14    2
    26    13    15   am
    27    15    25    1
    28    15    16    1
    29    16    17    1
    30    16    39    1
    31    16    40    1
    32    17    18    1
    33    17    25    1
    34    17    41    1
    35    18    24    1
    36    18    19    1
    37    19    20    1
    38    19    42    1
    39    19    43    1
    40    20    21    1
    41    20    44    1
    42    20    45    1
    43    21    22    1
    44    21    23    1
    45    21    24    1
    46    23    46    1
    47    24    47    1
    48    24    48    1
    49    25    49    1
    50    25    50    1
    51    26    27    1
    52    26    28    1
    53    26    51    1
    54    27    52    1
    55    27    53    1
    56    27    54    1
    57    28    55    1
    58    28    56    1
    59    28    57    1
@<TRIPOS>SUBSTRUCTURE
     1 ZINC000650955167        1 TEMP              0 ****  ****    0 ROOT


##########                                Name:    ZINC001181473921
##########                DOCK_Rotatable_Bonds:                   9
##########                         Heavy_Atoms:                  24
##########                    Molecular_Weight:             357.431
##########                DOCK_Rotatable_Bonds:                   9
##########                       Formal_Charge:        -5.96046e-08
##########                     HBond_Acceptors:                   9
##########                        HBond_Donors:                   4
##########                         Heavy_Atoms:                  24
##########                          Grid_Score:          -38.048950
##########                     Grid_vdw_energy:          -35.042732
##########                      Grid_es_energy:           -3.006218
##########           Internal_energy_repulsive:           14.716552

@<TRIPOS>MOLECULE
ZINC001181473921
 47 48 1 0 0
SMALL
USER_CHARGES


@<TRIPOS>ATOM
      1 C1         -7.3431    2.6035   53.5360 C.3     1  ZINC001181473921   -0.1300
      2 C2         -7.8662    1.2765   53.0498 C.2     1  ZINC001181473921    0.1900
      3 C3         -9.0356    0.8042   53.5319 C.2     1  ZINC001181473921   -0.2400
      4 C4         -9.5299   -0.4358   53.0805 C.2     1  ZINC001181473921    0.2500
      5 O5        -10.7016   -0.9228   53.5543 O.3     1  ZINC001181473921   -0.4600
      6 C6         -8.8005   -1.1474   52.1460 C.2     1  ZINC001181473921   -0.3700
      7 C7         -7.5937   -0.6166   51.6757 C.2     1  ZINC001181473921    0.5300
      8 O8         -6.9379   -1.2326   50.8500 O.2     1  ZINC001181473921   -0.5500
      9 N9         -7.1574    0.5738   52.1275 N.am    1  ZINC001181473921   -0.5000
     10 C10        -5.8925    1.1157   51.6249 C.3     1  ZINC001181473921    0.1000
     11 C11        -6.1502    1.9027   50.3384 C.3     1  ZINC001181473921   -0.1600
     12 C12        -4.8355    2.3365   49.7430 C.2     1  ZINC001181473921    0.5200
     13 O13        -4.7627    2.6009   48.5615 O.2     1  ZINC001181473921   -0.5300
     14 N14        -3.7406    2.4306   50.5233 N.am    1  ZINC001181473921   -0.7200
     15 C15        -2.4622    2.8506   49.9440 C.3     1  ZINC001181473921    0.1400
     16 H16        -2.5846    3.7654   49.3639 H       1  ZINC001181473921    0.1000
     17 C17        -1.8587    1.7231   49.0702 C.3     1  ZINC001181473921   -0.1300
     18 C18        -0.3464    2.0273   49.0518 C.3     1  ZINC001181473921   -0.1500
     19 C19        -0.0504    2.8619   50.3101 C.3     1  ZINC001181473921   -0.0800
     20 H20         0.3487    3.8359   50.0268 H       1  ZINC001181473921    0.0900
     21 C21         0.9498    2.1259   51.2039 C.3     1  ZINC001181473921   -0.6200
     22 S22         1.5652    3.2568   52.4817 S.o2    1  ZINC001181473921    2.6100
     23 N23         2.2201    4.5201   51.6349 N.am    1  ZINC001181473921   -1.2500
     24 O24         0.4831    3.8376   53.1967 O.2     1  ZINC001181473921   -0.9600
     25 O25         2.6706    2.6825   53.1653 O.2     1  ZINC001181473921   -0.9600
     26 C26        -1.3946    3.0407   51.0500 C.3     1  ZINC001181473921   -0.1200
     27 H27        -7.1653    3.2586   52.6832 H       1  ZINC001181473921    0.0900
     28 H28        -8.0764    3.0619   54.1996 H       1  ZINC001181473921    0.1000
     29 H29        -6.4095    2.4499   54.0771 H       1  ZINC001181473921    0.0900
     30 H30        -9.5904    1.3751   54.2618 H       1  ZINC001181473921    0.1500
     31 H31       -10.6849   -1.1402   54.4964 H       1  ZINC001181473921    0.4100
     32 H32        -9.1571   -2.1004   51.7840 H       1  ZINC001181473921    0.1500
     33 H33        -5.4572    1.7768   52.3742 H       1  ZINC001181473921    0.1000
     34 H34        -5.2031    0.2970   51.4182 H       1  ZINC001181473921    0.1100
     35 H35        -6.6807    1.2709   49.6260 H       1  ZINC001181473921    0.1100
     36 H36        -6.7540    2.7814   50.5647 H       1  ZINC001181473921    0.1000
     37 H37        -3.7991    2.2203   51.4684 H       1  ZINC001181473921    0.4000
     38 H38        -2.0463    0.7488   49.5215 H       1  ZINC001181473921    0.0700
     39 H39        -2.2680    1.7622   48.0608 H       1  ZINC001181473921    0.0800
     40 H40         0.2219    1.0976   49.0781 H       1  ZINC001181473921    0.0900
     41 H41        -0.0909    2.5962   48.1577 H       1  ZINC001181473921    0.0800
     42 H42         0.4575    1.2762   51.6771 H       1  ZINC001181473921    0.1400
     43 H43         1.7849    1.7716   50.5994 H       1  ZINC001181473921    0.1400
     44 H44         2.6195    5.2664   52.1086 H       1  ZINC001181473921    0.4100
     45 H45         2.2043    4.5140   50.6650 H       1  ZINC001181473921    0.4200
     46 H46        -1.4613    4.0382   51.4841 H       1  ZINC001181473921    0.0800
     47 H47        -1.5095    2.2794   51.8215 H       1  ZINC001181473921    0.0800
@<TRIPOS>BOND
     1     1     2    1
     2     1    27    1
     3     1    28    1
     4     1    29    1
     5     2     9    1
     6     2     3    2
     7     3     4    1
     8     3    30    1
     9     4     5    1
    10     4     6    2
    11     5    31    1
    12     6     7    1
    13     6    32    1
    14     7     8    2
    15     7     9   am
    16     9    10    1
    17    10    11    1
    18    10    33    1
    19    10    34    1
    20    11    12    1
    21    11    35    1
    22    11    36    1
    23    12    13    2
    24    12    14   am
    25    14    15    1
    26    14    37    1
    27    15    16    1
    28    15    26    1
    29    15    17    1
    30    17    18    1
    31    17    38    1
    32    17    39    1
    33    18    19    1
    34    18    40    1
    35    18    41    1
    36    19    20    1
    37    19    21    1
    38    19    26    1
    39    21    22    1
    40    21    42    1
    41    21    43    1
    42    22    23   am
    43    22    24    2
    44    22    25    2
    45    23    44    1
    46    23    45    1
    47    26    46    1
    48    26    47    1
@<TRIPOS>SUBSTRUCTURE
     1 ZINC001181473921        1 TEMP              0 ****  ****    0 ROOT


##########                                Name:    ZINC000460972051
##########                DOCK_Rotatable_Bonds:                  10
##########                         Heavy_Atoms:                  29
##########                    Molecular_Weight:             417.572
##########                DOCK_Rotatable_Bonds:                  10
##########                       Formal_Charge:         3.31551e-07
##########                     HBond_Acceptors:                   7
##########                        HBond_Donors:                   2
##########                         Heavy_Atoms:                  29
##########                          Grid_Score:          -37.998070
##########                     Grid_vdw_energy:          -37.164303
##########                      Grid_es_energy:           -0.833768
##########           Internal_energy_repulsive:           33.466370

@<TRIPOS>MOLECULE
ZINC000460972051
 60 61 1 0 0
SMALL
USER_CHARGES


@<TRIPOS>ATOM
      1 C1        -13.2618    1.8193   49.1367 C.3     1  ZINC000460972051   -0.1800
      2 C2        -14.3874    1.0853   49.8683 C.3     1  ZINC000460972051    0.1000
      3 N3        -13.8563   -0.1332   50.4842 N.am    1  ZINC000460972051   -0.6200
      4 C4        -13.2184   -0.0662   51.6696 C.2     1  ZINC000460972051    0.7100
      5 O5        -13.0824    1.0059   52.2270 O.2     1  ZINC000460972051   -0.5800
      6 N6        -12.7312   -1.1874   52.2370 N.am    1  ZINC000460972051   -0.7400
      7 C7        -12.0393   -1.1148   53.5263 C.3     1  ZINC000460972051    0.2000
      8 H8        -12.5363   -0.3843   54.1647 H       1  ZINC000460972051    0.1100
      9 C9        -12.0722   -2.4877   54.2008 C.3     1  ZINC000460972051    0.1100
     10 N10       -13.3081   -2.6213   54.9760 N.am    1  ZINC000460972051   -1.1200
     11 S11       -13.4410   -3.8069   56.1245 S.o2    1  ZINC000460972051    2.7000
     12 O12       -14.6741   -3.5810   56.7936 O.2     1  ZINC000460972051   -0.9500
     13 O13       -13.1210   -5.0306   55.4769 O.2     1  ZINC000460972051   -0.9600
     14 C14       -12.1710   -3.5262   57.3132 C.ar    1  ZINC000460972051   -0.6900
     15 C15       -11.2635   -4.5270   57.6044 C.ar    1  ZINC000460972051   -0.0100
     16 C16       -10.2670   -4.3067   58.5371 C.ar    1  ZINC000460972051   -0.1500
     17 C17       -10.1781   -3.0855   59.1781 C.ar    1  ZINC000460972051   -0.0200
     18 C18        -9.0923   -2.8455   60.1952 C.3     1  ZINC000460972051   -0.1300
     19 C19       -11.0851   -2.0837   58.8859 C.ar    1  ZINC000460972051   -0.1500
     20 C20       -12.0790   -2.3027   57.9506 C.ar    1  ZINC000460972051    0.0300
     21 C21       -13.0676   -1.2109   57.6320 C.3     1  ZINC000460972051   -0.1700
     22 C22       -10.6081   -0.6977   53.3056 C.ar    1  ZINC000460972051   -0.1000
     23 C23       -10.0910    0.3866   53.9895 C.ar    1  ZINC000460972051   -0.1000
     24 C24        -8.7781    0.7693   53.7872 C.ar    1  ZINC000460972051   -0.1200
     25 C25        -7.9823    0.0674   52.9012 C.ar    1  ZINC000460972051   -0.1200
     26 C26        -8.4992   -1.0175   52.2181 C.ar    1  ZINC000460972051   -0.1200
     27 C27        -9.8108   -1.4028   52.4237 C.ar    1  ZINC000460972051   -0.1000
     28 C28       -14.0185   -1.4245   49.8117 C.3     1  ZINC000460972051    0.1500
     29 C29       -15.3282   -2.0738   50.2632 C.3     1  ZINC000460972051   -0.1600
     30 C30       -14.0511   -1.2103   48.2971 C.3     1  ZINC000460972051   -0.1600
     31 H31       -13.6570    2.7259   48.6785 H       1  ZINC000460972051    0.0700
     32 H32       -12.4783    2.0831   49.8472 H       1  ZINC000460972051    0.0600
     33 H33       -12.8483    1.1719   48.3636 H       1  ZINC000460972051    0.0700
     34 H34       -14.8010    1.7328   50.6415 H       1  ZINC000460972051    0.0700
     35 H35       -15.1710    0.8215   49.1579 H       1  ZINC000460972051    0.0900
     36 H36       -12.8386   -2.0424   51.7916 H       1  ZINC000460972051    0.4000
     37 H37       -12.0345   -3.2673   53.4399 H       1  ZINC000460972051    0.0900
     38 H38       -11.2140   -2.5866   54.8654 H       1  ZINC000460972051    0.0900
     39 H39       -14.0486   -2.0153   54.8166 H       1  ZINC000460972051    0.4200
     40 H40       -11.3330   -5.4814   57.1036 H       1  ZINC000460972051    0.1400
     41 H41        -9.5583   -5.0891   58.7652 H       1  ZINC000460972051    0.1300
     42 H42        -8.2105   -2.4427   59.6969 H       1  ZINC000460972051    0.0800
     43 H43        -9.4447   -2.1340   60.9418 H       1  ZINC000460972051    0.0700
     44 H44        -8.8364   -3.7864   60.6823 H       1  ZINC000460972051    0.0700
     45 H45       -11.0155   -1.1294   59.3864 H       1  ZINC000460972051    0.1300
     46 H46       -12.7373   -0.6689   56.7460 H       1  ZINC000460972051    0.0900
     47 H47       -14.0471   -1.6509   57.4448 H       1  ZINC000460972051    0.1000
     48 H48       -13.1335   -0.5230   58.4751 H       1  ZINC000460972051    0.0900
     49 H49       -10.7127    0.9351   54.6816 H       1  ZINC000460972051    0.1200
     50 H50        -8.3744    1.6170   54.3209 H       1  ZINC000460972051    0.1200
     51 H51        -6.9568    0.3668   52.7426 H       1  ZINC000460972051    0.1200
     52 H52        -7.8775   -1.5658   51.5257 H       1  ZINC000460972051    0.1200
     53 H53       -10.2145   -2.2504   51.8899 H       1  ZINC000460972051    0.1200
     54 H54       -13.1828   -2.0755   50.0686 H       1  ZINC000460972051    0.1000
     55 H55       -15.3050   -2.2265   51.3422 H       1  ZINC000460972051    0.0600
     56 H56       -16.1639   -1.4229   50.0064 H       1  ZINC000460972051    0.0600
     57 H57       -15.4489   -3.0346   49.7628 H       1  ZINC000460972051    0.0700
     58 H58       -13.1181   -0.7477   47.9754 H       1  ZINC000460972051    0.0600
     59 H59       -14.1718   -2.1710   47.7967 H       1  ZINC000460972051    0.0700
     60 H60       -14.8868   -0.5594   48.0402 H       1  ZINC000460972051    0.0600
@<TRIPOS>BOND
     1     1     2    1
     2     1    31    1
     3     1    32    1
     4     1    33    1
     5     2     3    1
     6     2    34    1
     7     2    35    1
     8     3     4   am
     9     3    28    1
    10     4     5    2
    11     4     6   am
    12     6     7    1
    13     6    36    1
    14     7     8    1
    15     7     9    1
    16     7    22    1
    17     9    10    1
    18     9    37    1
    19     9    38    1
    20    10    11   am
    21    10    39    1
    22    11    12    2
    23    11    13    2
    24    11    14    1
    25    14    20   ar
    26    14    15   ar
    27    15    16   ar
    28    15    40    1
    29    16    17   ar
    30    16    41    1
    31    17    18    1
    32    17    19   ar
    33    18    42    1
    34    18    43    1
    35    18    44    1
    36    19    20   ar
    37    19    45    1
    38    20    21    1
    39    21    46    1
    40    21    47    1
    41    21    48    1
    42    22    27   ar
    43    22    23   ar
    44    23    24   ar
    45    23    49    1
    46    24    25   ar
    47    24    50    1
    48    25    26   ar
    49    25    51    1
    50    26    27   ar
    51    26    52    1
    52    27    53    1
    53    28    29    1
    54    28    30    1
    55    28    54    1
    56    29    55    1
    57    29    56    1
    58    29    57    1
    59    30    58    1
    60    30    59    1
    61    30    60    1
@<TRIPOS>SUBSTRUCTURE
     1 ZINC000460972051        1 TEMP              0 ****  ****    0 ROOT


##########                                Name:    ZINC001296589646
##########                DOCK_Rotatable_Bonds:                   8
##########                         Heavy_Atoms:                  29
##########                    Molecular_Weight:             398.548
##########                DOCK_Rotatable_Bonds:                   8
##########                       Formal_Charge:          -0.0200008
##########                     HBond_Acceptors:                   6
##########                        HBond_Donors:                   0
##########                         Heavy_Atoms:                  29
##########                          Grid_Score:          -37.964233
##########                     Grid_vdw_energy:          -36.639671
##########                      Grid_es_energy:           -1.324564
##########           Internal_energy_repulsive:           22.463207

@<TRIPOS>MOLECULE
ZINC001296589646
 63 66 1 0 0
SMALL
USER_CHARGES


@<TRIPOS>ATOM
      1 C1         -3.6368    4.0478   53.8062 C.3     1  ZINC001296589646   -0.1500
      2 C2         -3.9839    2.8118   52.9738 C.3     1  ZINC001296589646    0.0500
      3 O3         -4.3311    3.2131   51.6470 O.3     1  ZINC001296589646   -0.3600
      4 C4         -4.8323    2.1523   50.8312 C.3     1  ZINC001296589646    0.1800
      5 C5         -5.9633    1.4356   51.5229 C.2     1  ZINC001296589646    0.1500
      6 N6         -6.0447    0.1542   51.7444 N.2     1  ZINC001296589646   -0.2600
      7 N7         -7.1416   -0.1184   52.3563 N.2     1  ZINC001296589646   -0.3200
      8 C8         -7.8244    0.9835   52.5597 C.2     1  ZINC001296589646    0.3600
      9 N9         -9.0549    1.0860   53.1890 N.3     1  ZINC001296589646   -0.4300
     10 C10        -9.8574   -0.1484   52.9931 C.3     1  ZINC001296589646    0.0300
     11 C11       -10.8952   -0.0825   54.1416 C.3     1  ZINC001296589646   -0.1200
     12 C12       -10.0769    0.5060   55.3137 C.3     1  ZINC001296589646   -0.1000
     13 H13        -9.7164   -0.2925   55.9621 H       1  ZINC001296589646    0.0800
     14 C14       -10.9289    1.4941   56.1129 C.3     1  ZINC001296589646   -0.1400
     15 C15        -8.8916    1.2329   54.6516 C.3     1  ZINC001296589646    0.0500
     16 N16        -7.0913    2.0102   52.0396 N.pl3   1  ZINC001296589646   -0.4600
     17 C17        -7.4443    3.4321   52.0283 C.3     1  ZINC001296589646    0.1000
     18 C18        -8.3512    3.7229   50.8309 C.3     1  ZINC001296589646   -0.1300
     19 C19        -9.7482    4.0988   51.3287 C.3     1  ZINC001296589646   -0.0500
     20 H20       -10.0589    3.3974   52.1030 H       1  ZINC001296589646    0.0800
     21 C21        -9.7201    5.5156   51.9053 C.3     1  ZINC001296589646   -0.1500
     22 C22       -10.7224    4.0430   50.1803 C.ar    1  ZINC001296589646   -0.0800
     23 C23       -10.7509    5.0632   49.2478 C.ar    1  ZINC001296589646   -0.1100
     24 C24       -11.6445    5.0120   48.1944 C.ar    1  ZINC001296589646   -0.1200
     25 C25       -12.5095    3.9406   48.0732 C.ar    1  ZINC001296589646   -0.1200
     26 C26       -12.4805    2.9200   49.0052 C.ar    1  ZINC001296589646   -0.1200
     27 C27       -11.5839    2.9691   50.0562 C.ar    1  ZINC001296589646   -0.1200
     28 C28        -3.6966    1.1639   50.4503 C.3     1  ZINC001296589646   -0.1400
     29 C29        -3.0850    1.8790   49.2192 C.3     1  ZINC001296589646    0.0600
     30 O30        -4.2019    2.4683   48.5346 O.3     1  ZINC001296589646   -0.3700
     31 C31        -5.2801    2.6838   49.4527 C.3     1  ZINC001296589646    0.0400
     32 H32        -2.7399    4.5175   53.4024 H       1  ZINC001296589646    0.0600
     33 H33        -4.4654    4.7550   53.7694 H       1  ZINC001296589646    0.0700
     34 H34        -3.4577    3.7512   54.8397 H       1  ZINC001296589646    0.0700
     35 H35        -3.1229    2.1443   52.9379 H       1  ZINC001296589646    0.0500
     36 H36        -4.8274    2.2925   53.4287 H       1  ZINC001296589646    0.0600
     37 H37       -10.3551   -0.1338   52.0234 H       1  ZINC001296589646    0.0900
     38 H38        -9.2304   -1.0346   53.0915 H       1  ZINC001296589646    0.0600
     39 H39       -11.7211    0.5780   53.8778 H       1  ZINC001296589646    0.0800
     40 H40       -11.2608   -1.0793   54.3887 H       1  ZINC001296589646    0.0800
     41 H41       -11.7895    0.9740   56.5338 H       1  ZINC001296589646    0.0600
     42 H42       -10.3316    1.9196   56.9192 H       1  ZINC001296589646    0.0600
     43 H43       -11.2728    2.2923   55.4551 H       1  ZINC001296589646    0.0600
     44 H44        -7.9531    0.7776   54.9681 H       1  ZINC001296589646    0.0800
     45 H45        -8.9051    2.2886   54.9226 H       1  ZINC001296589646    0.0900
     46 H46        -7.9680    3.6838   52.9505 H       1  ZINC001296589646    0.1100
     47 H47        -6.5369    4.0311   51.9508 H       1  ZINC001296589646    0.1000
     48 H48        -7.9367    4.5492   50.2534 H       1  ZINC001296589646    0.0800
     49 H49        -8.4163    2.8359   50.2007 H       1  ZINC001296589646    0.0700
     50 H50       -10.7154    5.7835   52.2598 H       1  ZINC001296589646    0.0600
     51 H51        -9.0154    5.5559   52.7359 H       1  ZINC001296589646    0.0600
     52 H52        -9.4094    6.2170   51.1309 H       1  ZINC001296589646    0.0600
     53 H53       -10.0750    5.9003   49.3425 H       1  ZINC001296589646    0.1200
     54 H54       -11.6671    5.8094   47.4663 H       1  ZINC001296589646    0.1200
     55 H55       -13.2081    3.9010   47.2506 H       1  ZINC001296589646    0.1200
     56 H56       -13.1565    2.0831   48.9106 H       1  ZINC001296589646    0.1200
     57 H57       -11.5612    2.1717   50.7843 H       1  ZINC001296589646    0.1200
     58 H58        -2.9670    1.0748   51.2553 H       1  ZINC001296589646    0.1000
     59 H59        -4.0995    0.1884   50.1781 H       1  ZINC001296589646    0.1000
     60 H60        -2.3865    2.6522   49.5391 H       1  ZINC001296589646    0.0700
     61 H61        -2.5831    1.1582   48.5738 H       1  ZINC001296589646    0.0900
     62 H62        -6.1650    2.1428   49.1174 H       1  ZINC001296589646    0.1000
     63 H63        -5.5003    3.7491   49.5209 H       1  ZINC001296589646    0.0800
@<TRIPOS>BOND
     1     1     2    1
     2     1    32    1
     3     1    33    1
     4     1    34    1
     5     2     3    1
     6     2    35    1
     7     2    36    1
     8     3     4    1
     9     4    31    1
    10     4     5    1
    11     4    28    1
    12     5    16    1
    13     5     6    2
    14     6     7    1
    15     7     8    2
    16     8     9    1
    17     8    16    1
    18     9    15    1
    19     9    10    1
    20    10    11    1
    21    10    37    1
    22    10    38    1
    23    11    12    1
    24    11    39    1
    25    11    40    1
    26    12    13    1
    27    12    14    1
    28    12    15    1
    29    14    41    1
    30    14    42    1
    31    14    43    1
    32    15    44    1
    33    15    45    1
    34    16    17    1
    35    17    18    1
    36    17    46    1
    37    17    47    1
    38    18    19    1
    39    18    48    1
    40    18    49    1
    41    19    20    1
    42    19    21    1
    43    19    22    1
    44    21    50    1
    45    21    51    1
    46    21    52    1
    47    22    27   ar
    48    22    23   ar
    49    23    24   ar
    50    23    53    1
    51    24    25   ar
    52    24    54    1
    53    25    26   ar
    54    25    55    1
    55    26    27   ar
    56    26    56    1
    57    27    57    1
    58    28    29    1
    59    28    58    1
    60    28    59    1
    61    29    30    1
    62    29    60    1
    63    29    61    1
    64    30    31    1
    65    31    62    1
    66    31    63    1
@<TRIPOS>SUBSTRUCTURE
     1 ZINC001296589646        1 TEMP              0 ****  ****    0 ROOT


##########                                Name:     oleObject14.pdb
##########                DOCK_Rotatable_Bonds:                   9
##########                         Heavy_Atoms:                  33
##########                    Molecular_Weight:             484.424
##########                DOCK_Rotatable_Bonds:                   9
##########                       Formal_Charge:         0.000299782
##########                     HBond_Acceptors:                   7
##########                        HBond_Donors:                   1
##########                         Heavy_Atoms:                  33
##########                          Grid_Score:          -37.959724
##########                     Grid_vdw_energy:          -37.382366
##########                      Grid_es_energy:           -0.577358
##########           Internal_energy_repulsive:            8.863312

@<TRIPOS>MOLECULE
oleObject14.pdb
 60 63 1 0 0
SMALL
NO_CHARGES


@<TRIPOS>ATOM
      1 C          -9.6396   -0.3104   61.4070 C.ar    1  UNL         0.0422
      2 C         -10.4275    0.3775   60.4707 C.ar    1  UNL        -0.0408
      3 C         -10.8362   -0.2628   59.2889 C.ar    1  UNL        -0.0288
      4 C         -10.4571   -1.5988   59.0374 C.ar    1  UNL         0.0937
      5 C          -9.6659   -2.2822   59.9833 C.ar    1  UNL         0.0723
      6 C          -9.2586   -1.6394   61.1643 C.ar    1  UNL        -0.0221
      7 CL         -9.1725   -3.9430   59.7110 Cl      1  UNL        -0.0814
      8 O         -10.8380   -2.2644   57.8880 O.3     1  UNL        -0.3432
      9 C         -12.0983   -2.0540   57.2270 C.3     1  UNL         0.0661
     10 C         -12.4703   -3.3606   56.4960 C.3     1  UNL         0.0222
     11 N         -12.5043   -3.2229   55.0230 N.4     1  UNL        -0.3010
     12 C         -13.5276   -2.2747   54.5238 C.3     1  UNL        -0.0010
     13 C         -13.5927   -2.2573   52.9803 C.3     1  UNL        -0.0289
     14 C         -12.2178   -1.9845   52.3237 C.3     1  UNL         0.0382
     15 C         -11.1441   -2.9236   52.9289 C.3     1  UNL        -0.0289
     16 C         -11.1570   -2.9544   54.4754 C.3     1  UNL        -0.0010
     17 C         -11.8199   -0.4913   52.4277 C.2     1  UNL         0.2156
     18 O         -12.6535    0.3932   52.4992 O.2     1  UNL        -0.2774
     19 N         -10.4785   -0.1363   52.4887 N.am    1  UNL        -0.3025
     20 C          -9.9097    1.2209   52.5893 C.3     1  UNL         0.0900
     21 C         -10.2029    1.8915   53.9300 C.ar    1  UNL        -0.0217
     22 C          -9.4930    1.5347   55.0944 C.ar    1  UNL        -0.0568
     23 C          -9.7831    2.1535   56.3213 C.ar    1  UNL        -0.0619
     24 C         -10.7826    3.1364   56.3940 C.ar    1  UNL        -0.0622
     25 C         -11.4897    3.5017   55.2378 C.ar    1  UNL        -0.0619
     26 C         -11.1994    2.8828   54.0111 C.ar    1  UNL        -0.0568
     27 C          -8.4120    1.2275   52.2987 C.ar    1  UNL         0.0652
     28 C          -7.6153    2.3663   52.5385 C.ar    1  UNL        -0.0383
     29 C          -6.2439    2.3136   52.2424 C.ar    1  UNL        -0.0588
     30 C          -5.7165    1.1245   51.7155 C.ar    1  UNL        -0.0438
     31 C          -6.5819    0.0371   51.5057 C.ar    1  UNL         0.0272
     32 N          -7.8992    0.0860   51.7893 N.ar    1  UNL        -0.2590
     33 CL         -9.1319    0.4902   62.8787 Cl      1  UNL        -0.0843
     34 H         -10.7222    1.4060   60.6595 H       1  UNL         0.0639
     35 H         -11.4453    0.2880   58.5795 H       1  UNL         0.0652
     36 H          -8.6489   -2.1709   61.8894 H       1  UNL         0.0655
     37 H         -12.0115   -1.2296   56.5091 H       1  UNL         0.0586
     38 H         -12.8772   -1.8127   57.9618 H       1  UNL         0.0586
     39 H         -13.4620   -3.6695   56.8516 H       1  UNL         0.0455
     40 H         -11.7587   -4.1463   56.7818 H       1  UNL         0.0455
     41 H         -13.3043   -1.2635   54.8887 H       1  UNL         0.0431
     42 H         -14.5213   -2.5488   54.8964 H       1  UNL         0.0431
     43 H         -14.3260   -1.5120   52.6512 H       1  UNL         0.0288
     44 H         -13.9620   -3.2322   52.6366 H       1  UNL         0.0288
     45 H         -12.2991   -2.2601   51.2689 H       1  UNL         0.0402
     46 H         -10.1476   -2.6362   52.5699 H       1  UNL         0.0288
     47 H         -11.3253   -3.9432   52.5648 H       1  UNL         0.0288
     48 H         -10.7868   -1.9964   54.8619 H       1  UNL         0.0431
     49 H         -10.4584   -3.7316   54.8115 H       1  UNL         0.0431
     50 H          -9.8268   -0.9069   52.5652 H       1  UNL         0.1504
     51 H         -10.3810    1.8195   51.7993 H       1  UNL         0.0624
     52 H          -8.7219    0.7711   55.0534 H       1  UNL         0.0626
     53 H          -9.2343    1.8701   57.2150 H       1  UNL         0.0623
     54 H         -11.0067    3.6153   57.3430 H       1  UNL         0.0623
     55 H         -12.2611    4.2647   55.2917 H       1  UNL         0.0623
     56 H         -11.7511    3.1742   53.1215 H       1  UNL         0.0626
     57 H          -8.0498    3.2742   52.9457 H       1  UNL         0.0643
     58 H          -5.6051    3.1746   52.4169 H       1  UNL         0.0624
     59 H          -4.6606    1.0456   51.4739 H       1  UNL         0.0639
     60 H          -6.2093   -0.9017   51.0977 H       1  UNL         0.0840
@<TRIPOS>BOND
     1     1     2   ar
     2     1     6   ar
     3     1    33    1
     4     2     3   ar
     5     2    34    1
     6     3     4   ar
     7     3    35    1
     8     4     5   ar
     9     4     8    1
    10     5     6   ar
    11     5     7    1
    12     6    36    1
    13     8     9    1
    14     9    10    1
    15     9    37    1
    16     9    38    1
    17    10    11    1
    18    10    39    1
    19    10    40    1
    20    11    12    1
    21    11    16    1
    22    12    13    1
    23    12    41    1
    24    12    42    1
    25    13    14    1
    26    13    43    1
    27    13    44    1
    28    14    15    1
    29    14    17    1
    30    14    45    1
    31    15    16    1
    32    15    46    1
    33    15    47    1
    34    16    48    1
    35    16    49    1
    36    17    18    2
    37    17    19   am
    38    19    20    1
    39    19    50    1
    40    20    21    1
    41    20    27    1
    42    20    51    1
    43    21    22   ar
    44    21    26   ar
    45    22    23   ar
    46    22    52    1
    47    23    24   ar
    48    23    53    1
    49    24    25   ar
    50    24    54    1
    51    25    26   ar
    52    25    55    1
    53    26    56    1
    54    27    28   ar
    55    27    32   ar
    56    28    29   ar
    57    28    57    1
    58    29    30   ar
    59    29    58    1
    60    30    31   ar
    61    30    59    1
    62    31    32   ar
    63    31    60    1
@<TRIPOS>SUBSTRUCTURE
     1 UNL         1 TEMP              0 ****  ****    0 ROOT


##########                                Name:    ZINC000301324012
##########                DOCK_Rotatable_Bonds:                   7
##########                         Heavy_Atoms:                  28
##########                    Molecular_Weight:               415.9
##########                DOCK_Rotatable_Bonds:                   7
##########                       Formal_Charge:          -0.0100002
##########                     HBond_Acceptors:                   8
##########                        HBond_Donors:                   2
##########                         Heavy_Atoms:                  28
##########                          Grid_Score:          -37.942974
##########                     Grid_vdw_energy:          -37.925419
##########                      Grid_es_energy:           -0.017555
##########           Internal_energy_repulsive:            9.013847

@<TRIPOS>MOLECULE
ZINC000301324012
 46 48 1 0 0
SMALL
USER_CHARGES


@<TRIPOS>ATOM
      1 C1         -6.6451    3.9459   51.4741 C.3     1  ZINC000301324012   -0.1600
      2 C2         -6.1825    2.6281   52.0988 C.3     1  ZINC000301324012    0.2000
      3 H3         -5.8944    2.7990   53.1360 H       1  ZINC000301324012    0.1100
      4 N4         -7.2758    1.6541   52.0498 N.am    1  ZINC000301324012   -0.7100
      5 C5         -8.1494    1.5698   53.0725 C.2     1  ZINC000301324012    0.5500
      6 O6         -8.0312    2.3028   54.0349 O.2     1  ZINC000301324012   -0.5300
      7 C7         -9.2517    0.5856   53.0239 C.ar    1  ZINC000301324012   -0.0700
      8 C8         -8.9936   -0.7388   52.6670 C.ar    1  ZINC000301324012   -0.1100
      9 C9        -10.0265   -1.6522   52.6240 C.ar    1  ZINC000301324012   -0.0200
     10 C10       -11.3162   -1.2578   52.9333 C.ar    1  ZINC000301324012   -0.6600
     11 S11       -12.6298   -2.4307   52.8754 S.o2    1  ZINC000301324012    2.6900
     12 O12       -13.6194   -1.8827   52.0153 O.2     1  ZINC000301324012   -0.9400
     13 O13       -12.0263   -3.6985   52.6574 O.2     1  ZINC000301324012   -0.9400
     14 N14       -13.3035   -2.4872   54.3871 N.am    1  ZINC000301324012   -1.0500
     15 C15       -12.5237   -2.8572   55.4862 C.ar    1  ZINC000301324012    0.1600
     16 C16       -11.6505   -1.9425   56.0593 C.ar    1  ZINC000301324012   -0.1600
     17 C17       -10.8810   -2.3114   57.1459 C.ar    1  ZINC000301324012   -0.0800
     18 C18       -10.9790   -3.5899   57.6628 C.ar    1  ZINC000301324012   -0.1200
     19 C19       -11.8478   -4.5042   57.0949 C.ar    1  ZINC000301324012   -0.0900
     20 C20       -12.6249   -4.1403   56.0120 C.ar    1  ZINC000301324012   -0.0600
     21 Cl21      -13.7151   -5.2882   55.2996 Cl      1  ZINC000301324012   -0.0600
     22 C22       -11.5787    0.0535   53.2883 C.ar    1  ZINC000301324012   -0.0200
     23 C23       -10.5540    0.9756   53.3403 C.ar    1  ZINC000301324012   -0.0800
     24 C24        -5.0005    2.0956   51.3304 C.ar    1  ZINC000301324012    0.1200
     25 C25        -3.8292    2.8274   51.2857 C.ar    1  ZINC000301324012   -0.1600
     26 C26        -2.7473    2.3283   50.5762 C.ar    1  ZINC000301324012   -0.0700
     27 C27        -2.8851    1.1065   49.9359 C.ar    1  ZINC000301324012   -0.1700
     28 C28        -4.0878    0.4312   50.0252 C.ar    1  ZINC000301324012    0.1100
     29 N29        -5.0942    0.9339   50.7131 N.ar    1  ZINC000301324012   -0.4900
     30 H30        -5.8317    4.6706   51.5106 H       1  ZINC000301324012    0.0700
     31 H31        -6.9332    3.7749   50.4369 H       1  ZINC000301324012    0.0600
     32 H32        -7.5000    4.3311   52.0299 H       1  ZINC000301324012    0.0700
     33 H33        -7.3707    1.0699   51.2813 H       1  ZINC000301324012    0.4100
     34 H34        -7.9874   -1.0478   52.4246 H       1  ZINC000301324012    0.1400
     35 H35        -9.8282   -2.6774   52.3480 H       1  ZINC000301324012    0.1500
     36 H36       -14.2394   -2.2636   54.5096 H       1  ZINC000301324012    0.4300
     37 H37       -11.5725   -0.9438   55.6559 H       1  ZINC000301324012    0.1700
     38 H38       -10.2016   -1.6001   57.5918 H       1  ZINC000301324012    0.1400
     39 H39       -10.3757   -3.8755   58.5118 H       1  ZINC000301324012    0.1400
     40 H40       -11.9219   -5.5021   57.5012 H       1  ZINC000301324012    0.1400
     41 H41       -12.5875    0.3549   53.5290 H       1  ZINC000301324012    0.1500
     42 H42       -10.7602    1.9988   53.6179 H       1  ZINC000301324012    0.1500
     43 H43        -3.7574    3.7764   51.7963 H       1  ZINC000301324012    0.1400
     44 H44        -1.8195    2.8786   50.5235 H       1  ZINC000301324012    0.1400
     45 H45        -2.0633    0.6878   49.3741 H       1  ZINC000301324012    0.1400
     46 H46        -4.2034   -0.5210   49.5289 H       1  ZINC000301324012    0.1600
@<TRIPOS>BOND
     1     1     2    1
     2     1    30    1
     3     1    31    1
     4     1    32    1
     5     2     3    1
     6     2     4    1
     7     2    24    1
     8     4     5   am
     9     4    33    1
    10     5     6    2
    11     5     7    1
    12     7    23   ar
    13     7     8   ar
    14     8     9   ar
    15     8    34    1
    16     9    10   ar
    17     9    35    1
    18    10    11    1
    19    10    22   ar
    20    11    12    2
    21    11    13    2
    22    11    14   am
    23    14    15    1
    24    14    36    1
    25    15    20   ar
    26    15    16   ar
    27    16    17   ar
    28    16    37    1
    29    17    18   ar
    30    17    38    1
    31    18    19   ar
    32    18    39    1
    33    19    20   ar
    34    19    40    1
    35    20    21    1
    36    22    23   ar
    37    22    41    1
    38    23    42    1
    39    24    29   ar
    40    24    25   ar
    41    25    26   ar
    42    25    43    1
    43    26    27   ar
    44    26    44    1
    45    27    28   ar
    46    27    45    1
    47    28    29   ar
    48    28    46    1
@<TRIPOS>SUBSTRUCTURE
     1 ZINC000301324012        1 TEMP              0 ****  ****    0 ROOT


##########                                Name:    ZINC000807524472
##########                DOCK_Rotatable_Bonds:                   9
##########                         Heavy_Atoms:                  28
##########                    Molecular_Weight:             410.534
##########                DOCK_Rotatable_Bonds:                   9
##########                       Formal_Charge:           0.0200006
##########                     HBond_Acceptors:                   8
##########                        HBond_Donors:                   0
##########                         Heavy_Atoms:                  28
##########                          Grid_Score:          -37.895267
##########                     Grid_vdw_energy:          -36.575985
##########                      Grid_es_energy:           -1.319284
##########           Internal_energy_repulsive:           22.899513

@<TRIPOS>MOLECULE
ZINC000807524472
 58 60 1 0 0
SMALL
USER_CHARGES


@<TRIPOS>ATOM
      1 C1        -16.8426   -2.0266   58.4157 C.3     1  ZINC000807524472   -0.1500
      2 C2        -15.5975   -2.4380   59.2040 C.3     1  ZINC000807524472    0.0600
      3 O3        -14.9656   -3.5426   58.5540 O.3     1  ZINC000807524472   -0.3800
      4 C4        -14.5457   -3.2670   57.2161 C.3     1  ZINC000807524472    0.0600
      5 C5        -13.9226   -4.5248   56.6076 C.3     1  ZINC000807524472    0.0700
      6 O6        -12.8698   -5.0139   57.4798 O.3     1  ZINC000807524472   -0.3500
      7 C7        -11.6067   -4.6575   57.1737 C.2     1  ZINC000807524472    0.5000
      8 O8        -10.6850   -5.4067   57.4304 O.2     1  ZINC000807524472   -0.4600
      9 C9        -11.3434   -3.3601   56.5282 C.ar    1  ZINC000807524472   -0.1200
     10 C10       -11.4375   -3.2335   55.1395 C.ar    1  ZINC000807524472    0.0400
     11 C11       -11.1905   -2.0169   54.5421 C.ar    1  ZINC000807524472   -0.7000
     12 S12       -11.3106   -1.8602   52.7913 S.o2    1  ZINC000807524472    2.6900
     13 O13       -10.3276   -0.9094   52.4051 O.2     1  ZINC000807524472   -0.9500
     14 O14       -11.3592   -3.1822   52.2724 O.2     1  ZINC000807524472   -0.9500
     15 N15       -12.7807   -1.1736   52.4602 N.am    1  ZINC000807524472   -0.9900
     16 C16       -12.8648    0.1068   51.7447 C.3     1  ZINC000807524472    0.1200
     17 C17       -13.7892   -0.0638   50.5351 C.3     1  ZINC000807524472   -0.1400
     18 C18       -15.1391   -0.6123   51.0031 C.3     1  ZINC000807524472   -0.1200
     19 C19       -14.9371   -1.9825   51.6538 C.3     1  ZINC000807524472   -0.1400
     20 C20       -14.0260   -1.8366   52.8709 C.3     1  ZINC000807524472    0.1200
     21 C21       -10.8483   -0.9157   55.3108 C.ar    1  ZINC000807524472    0.0200
     22 C22       -10.7507   -1.0241   56.6830 C.ar    1  ZINC000807524472   -0.1800
     23 C23       -11.0017   -2.2407   57.3047 C.ar    1  ZINC000807524472    0.2000
     24 N24       -10.9045   -2.3524   58.6851 N.3     1  ZINC000807524472   -0.4800
     25 C25        -9.5069   -2.1369   59.1395 C.3     1  ZINC000807524472    0.0400
     26 C26        -9.6727   -1.7741   60.6366 C.3     1  ZINC000807524472   -0.1200
     27 C27       -10.9612   -0.9198   60.6446 C.3     1  ZINC000807524472   -0.1300
     28 C28       -11.7124   -1.3128   59.3591 C.3     1  ZINC000807524472    0.0400
     29 H29       -17.5365   -2.8659   58.3686 H       1  ZINC000807524472    0.0600
     30 H30       -17.3246   -1.1841   58.9115 H       1  ZINC000807524472    0.0700
     31 H31       -16.5537   -1.7369   57.4054 H       1  ZINC000807524472    0.0700
     32 H32       -14.9035   -1.5988   59.2511 H       1  ZINC000807524472    0.0500
     33 H33       -15.8864   -2.7278   60.2143 H       1  ZINC000807524472    0.0500
     34 H34       -15.4066   -2.9633   56.6205 H       1  ZINC000807524472    0.0600
     35 H35       -13.8085   -2.4640   57.2248 H       1  ZINC000807524472    0.0700
     36 H36       -14.6885   -5.2925   56.4968 H       1  ZINC000807524472    0.0900
     37 H37       -13.5031   -4.2862   55.6303 H       1  ZINC000807524472    0.0800
     38 H38       -11.7034   -4.0883   54.5355 H       1  ZINC000807524472    0.1600
     39 H39       -13.2694    0.8706   52.4090 H       1  ZINC000807524472    0.0800
     40 H40       -11.8715    0.4026   51.4069 H       1  ZINC000807524472    0.0900
     41 H41       -13.9367    0.9014   50.0509 H       1  ZINC000807524472    0.0800
     42 H42       -13.3385   -0.7608   49.8285 H       1  ZINC000807524472    0.0700
     43 H43       -15.5777    0.0731   51.7284 H       1  ZINC000807524472    0.0700
     44 H44       -15.8071   -0.7114   50.1475 H       1  ZINC000807524472    0.0700
     45 H45       -15.9017   -2.3828   51.9659 H       1  ZINC000807524472    0.0800
     46 H46       -14.4757   -2.6614   50.9367 H       1  ZINC000807524472    0.0700
     47 H47       -13.7998   -2.8219   53.2783 H       1  ZINC000807524472    0.0900
     48 H48       -14.5227   -1.2308   53.6286 H       1  ZINC000807524472    0.0800
     49 H49       -10.6566    0.0336   54.8326 H       1  ZINC000807524472    0.1500
     50 H50       -10.4832   -0.1610   57.2746 H       1  ZINC000807524472    0.1400
     51 H51        -8.9209   -3.0491   59.0273 H       1  ZINC000807524472    0.0900
     52 H52        -9.0473   -1.3135   58.5928 H       1  ZINC000807524472    0.0500
     53 H53        -9.8023   -2.6731   61.2393 H       1  ZINC000807524472    0.0800
     54 H54        -8.8215   -1.1916   60.9890 H       1  ZINC000807524472    0.0800
     55 H55       -11.5646   -1.1534   61.5218 H       1  ZINC000807524472    0.0800
     56 H56       -10.7117    0.1411   60.6277 H       1  ZINC000807524472    0.0700
     57 H57       -11.8161   -0.4438   58.7092 H       1  ZINC000807524472    0.0500
     58 H58       -12.6953   -1.7113   59.6105 H       1  ZINC000807524472    0.0900
@<TRIPOS>BOND
     1     1     2    1
     2     1    29    1
     3     1    30    1
     4     1    31    1
     5     2     3    1
     6     2    32    1
     7     2    33    1
     8     3     4    1
     9     4     5    1
    10     4    34    1
    11     4    35    1
    12     5     6    1
    13     5    36    1
    14     5    37    1
    15     6     7    1
    16     7     8    2
    17     7     9    1
    18     9    23   ar
    19     9    10   ar
    20    10    11   ar
    21    10    38    1
    22    11    12    1
    23    11    21   ar
    24    12    13    2
    25    12    14    2
    26    12    15   am
    27    15    20    1
    28    15    16    1
    29    16    17    1
    30    16    39    1
    31    16    40    1
    32    17    18    1
    33    17    41    1
    34    17    42    1
    35    18    19    1
    36    18    43    1
    37    18    44    1
    38    19    20    1
    39    19    45    1
    40    19    46    1
    41    20    47    1
    42    20    48    1
    43    21    22   ar
    44    21    49    1
    45    22    23   ar
    46    22    50    1
    47    23    24    1
    48    24    28    1
    49    24    25    1
    50    25    26    1
    51    25    51    1
    52    25    52    1
    53    26    27    1
    54    26    53    1
    55    26    54    1
    56    27    28    1
    57    27    55    1
    58    27    56    1
    59    28    57    1
    60    28    58    1
@<TRIPOS>SUBSTRUCTURE
     1 ZINC000807524472        1 TEMP              0 ****  ****    0 ROOT


##########                                Name:    ZINC000466160459
##########                DOCK_Rotatable_Bonds:                   9
##########                         Heavy_Atoms:                  30
##########                    Molecular_Weight:             420.512
##########                DOCK_Rotatable_Bonds:                   9
##########                       Formal_Charge:          -0.0300007
##########                     HBond_Acceptors:                  10
##########                        HBond_Donors:                   2
##########                         Heavy_Atoms:                  30
##########                          Grid_Score:          -37.887531
##########                     Grid_vdw_energy:          -36.865276
##########                      Grid_es_energy:           -1.022254
##########           Internal_energy_repulsive:           99.581169

@<TRIPOS>MOLECULE
ZINC000466160459
 62 64 1 0 0
SMALL
USER_CHARGES


@<TRIPOS>ATOM
      1 C1        -13.0975   -1.6041   51.5917 C.3     1  ZINC000466160459    0.0300
      2 O2        -12.2144   -2.4106   52.3739 O.3     1  ZINC000466160459   -0.3900
      3 C3        -11.6344   -1.7265   53.4864 C.3     1  ZINC000466160459    0.0500
      4 C4        -10.6737   -0.6494   52.9784 C.3     1  ZINC000466160459    0.1200
      5 N5        -10.1922    0.1480   54.1090 N.am    1  ZINC000466160459   -0.7300
      6 C6         -8.9860    0.7461   54.0467 C.2     1  ZINC000466160459    0.5200
      7 O7         -8.2999    0.6252   53.0539 O.2     1  ZINC000466160459   -0.5200
      8 C8         -8.4899    1.5650   55.2105 C.3     1  ZINC000466160459   -0.1300
      9 H9         -8.0238    0.9082   55.9450 H       1  ZINC000466160459    0.1100
     10 C10        -9.6665    2.3002   55.8563 C.3     1  ZINC000466160459   -0.1000
     11 C11       -10.3423    3.1973   54.8168 C.3     1  ZINC000466160459   -0.1500
     12 C12        -9.3369    4.2393   54.3166 C.3     1  ZINC000466160459    0.1600
     13 H13        -9.0633    4.9052   55.1350 H       1  ZINC000466160459    0.0700
     14 C14        -9.9627    5.0521   53.1814 C.3     1  ZINC000466160459   -0.1400
     15 N15        -8.1394    3.5437   53.8261 N.am    1  ZINC000466160459   -0.6200
     16 C16        -7.6695    3.7776   52.5847 C.2     1  ZINC000466160459    0.7100
     17 O17        -8.2376    4.5708   51.8592 O.2     1  ZINC000466160459   -0.5500
     18 N18        -6.5699    3.1323   52.1477 N.am    1  ZINC000466160459   -0.7300
     19 C19        -6.0591    3.3866   50.7984 C.3     1  ZINC000466160459    0.1600
     20 H20        -6.4511    4.3369   50.4361 H       1  ZINC000466160459    0.1300
     21 C21        -6.5096    2.2612   49.8637 C.3     1  ZINC000466160459   -0.1400
     22 C22        -5.7302    0.9907   50.2240 C.3     1  ZINC000466160459   -0.1400
     23 C23        -4.2582    1.2016   49.8674 C.3     1  ZINC000466160459    0.1100
     24 N24        -3.7700    2.4524   50.4345 N.am    1  ZINC000466160459   -0.5200
     25 C25        -2.3844    2.6179   50.5650 C.2     1  ZINC000466160459    0.2800
     26 N26        -1.7334    2.8098   51.6881 N.2     1  ZINC000466160459   -0.2600
     27 N27        -0.3702    2.9266   51.3882 N.pl3   1  ZINC000466160459   -0.3800
     28 C28         0.7078    3.1478   52.3553 C.3     1  ZINC000466160459    0.1000
     29 C29        -0.2233    2.7991   50.0526 C.2     1  ZINC000466160459    0.0700
     30 C30        -1.4496    2.6014   49.5175 C.2     1  ZINC000466160459   -0.2900
     31 C31        -4.5590    3.4474   50.8361 C.2     1  ZINC000466160459    0.4900
     32 O32        -4.0383    4.4596   51.2549 O.2     1  ZINC000466160459   -0.4700
     33 C33        -7.4629    2.5880   54.7148 C.3     1  ZINC000466160459    0.1200
     34 H34       -13.4958   -2.1959   50.7676 H       1  ZINC000466160459    0.0900
     35 H35       -13.9184   -1.2531   52.2169 H       1  ZINC000466160459    0.0400
     36 H36       -12.5518   -0.7484   51.1943 H       1  ZINC000466160459    0.0400
     37 H37       -12.4227   -1.2606   54.0776 H       1  ZINC000466160459    0.0600
     38 H38       -11.0880   -2.4378   54.1057 H       1  ZINC000466160459    0.0700
     39 H39        -9.8272   -1.1229   52.4812 H       1  ZINC000466160459    0.0800
     40 H40       -11.1940   -0.0020   52.2726 H       1  ZINC000466160459    0.0800
     41 H41       -10.7415    0.2457   54.9025 H       1  ZINC000466160459    0.4000
     42 H42       -10.3868    1.5733   56.2319 H       1  ZINC000466160459    0.0700
     43 H43        -9.3034    2.9114   56.6825 H       1  ZINC000466160459    0.0700
     44 H44       -10.6838    2.5896   53.9788 H       1  ZINC000466160459    0.1000
     45 H45       -11.1944    3.7027   55.2713 H       1  ZINC000466160459    0.0700
     46 H46       -10.9084    5.4773   53.5174 H       1  ZINC000466160459    0.0400
     47 H47        -9.2849    5.8558   52.8936 H       1  ZINC000466160459    0.0800
     48 H48       -10.1404    4.4023   52.3245 H       1  ZINC000466160459    0.0600
     49 H49        -6.1166    2.4996   52.7267 H       1  ZINC000466160459    0.3900
     50 H50        -7.5778    2.0847   49.9902 H       1  ZINC000466160459    0.0900
     51 H51        -6.3028    2.5379   48.8300 H       1  ZINC000466160459    0.0900
     52 H52        -5.8233    0.7952   51.2924 H       1  ZINC000466160459    0.0700
     53 H53        -6.1259    0.1465   49.6595 H       1  ZINC000466160459    0.1000
     54 H54        -3.6697    0.3733   50.2618 H       1  ZINC000466160459    0.0900
     55 H55        -4.1509    1.2316   48.7832 H       1  ZINC000466160459    0.0800
     56 H56         1.0859    2.1869   52.7042 H       1  ZINC000466160459    0.0700
     57 H57         1.5149    3.7044   51.8788 H       1  ZINC000466160459    0.0900
     58 H58         0.3249    3.7169   53.2024 H       1  ZINC000466160459    0.0900
     59 H59         0.7084    2.8430   49.5082 H       1  ZINC000466160459    0.1800
     60 H60        -1.6712    2.4630   48.4696 H       1  ZINC000466160459    0.1500
     61 H61        -7.0363    3.1192   55.5657 H       1  ZINC000466160459    0.0900
     62 H62        -6.6717    2.0763   54.1668 H       1  ZINC000466160459    0.0700
@<TRIPOS>BOND
     1     1     2    1
     2     1    34    1
     3     1    35    1
     4     1    36    1
     5     2     3    1
     6     3     4    1
     7     3    37    1
     8     3    38    1
     9     4     5    1
    10     4    39    1
    11     4    40    1
    12     5     6   am
    13     5    41    1
    14     6     7    2
    15     6     8    1
    16     8     9    1
    17     8    33    1
    18     8    10    1
    19    10    11    1
    20    10    42    1
    21    10    43    1
    22    11    12    1
    23    11    44    1
    24    11    45    1
    25    12    13    1
    26    12    14    1
    27    12    15    1
    28    14    46    1
    29    14    47    1
    30    14    48    1
    31    15    16   am
    32    15    33    1
    33    16    17    2
    34    16    18   am
    35    18    19    1
    36    18    49    1
    37    19    20    1
    38    19    31    1
    39    19    21    1
    40    21    22    1
    41    21    50    1
    42    21    51    1
    43    22    23    1
    44    22    52    1
    45    22    53    1
    46    23    24    1
    47    23    54    1
    48    23    55    1
    49    24    25    1
    50    24    31   am
    51    25    30    1
    52    25    26    2
    53    26    27    1
    54    27    28    1
    55    27    29    1
    56    28    56    1
    57    28    57    1
    58    28    58    1
    59    29    30    2
    60    29    59    1
    61    30    60    1
    62    31    32    2
    63    33    61    1
    64    33    62    1
@<TRIPOS>SUBSTRUCTURE
     1 ZINC000466160459        1 TEMP              0 ****  ****    0 ROOT


##########                                Name:    ZINC000740930783
##########                DOCK_Rotatable_Bonds:                  11
##########                         Heavy_Atoms:                  27
##########                    Molecular_Weight:             413.257
##########                DOCK_Rotatable_Bonds:                  11
##########                       Formal_Charge:          -0.0100004
##########                     HBond_Acceptors:                   9
##########                        HBond_Donors:                   4
##########                         Heavy_Atoms:                  27
##########                          Grid_Score:          -37.848545
##########                     Grid_vdw_energy:          -35.232082
##########                      Grid_es_energy:           -2.616464
##########           Internal_energy_repulsive:           10.922627

@<TRIPOS>MOLECULE
ZINC000740930783
 45 46 1 0 0
SMALL
USER_CHARGES


@<TRIPOS>ATOM
      1 C1         -5.1425    4.6110   51.8619 C.3     1  ZINC000740930783    0.0200
      2 O2         -6.0630    3.9060   51.0264 O.3     1  ZINC000740930783   -0.3000
      3 C3         -6.6752    2.8170   51.5638 C.ar    1  ZINC000740930783    0.1200
      4 C4         -7.5194    2.9638   52.6471 C.ar    1  ZINC000740930783   -0.1400
      5 C5         -8.1476    1.8430   53.1969 C.ar    1  ZINC000740930783   -0.0800
      6 C6         -9.0510    1.9950   54.3545 C.2     1  ZINC000740930783    0.5600
      7 O7         -9.7043    3.0119   54.4863 O.2     1  ZINC000740930783   -0.5300
      8 N8         -9.1516    1.0065   55.2650 N.am    1  ZINC000740930783   -0.7200
      9 C9        -10.0468    1.1580   56.4148 C.3     1  ZINC000740930783    0.0900
     10 C10       -11.3975    0.5127   56.0979 C.3     1  ZINC000740930783    0.1400
     11 H11       -11.6886    0.7616   55.0775 H       1  ZINC000740930783    0.1200
     12 O12       -12.3845    1.0025   57.0079 O.3     1  ZINC000740930783   -0.5500
     13 C13       -11.2843   -0.9836   56.2372 C.ar    1  ZINC000740930783   -0.1100
     14 C14       -11.1834   -1.5553   57.4912 C.ar    1  ZINC000740930783   -0.1000
     15 C15       -11.0796   -2.9281   57.6192 C.ar    1  ZINC000740930783   -0.1100
     16 C16       -11.0760   -3.7293   56.4929 C.ar    1  ZINC000740930783   -0.1000
     17 C17       -11.1768   -3.1586   55.2379 C.ar    1  ZINC000740930783   -0.1100
     18 C18       -11.2870   -1.7857   55.1097 C.ar    1  ZINC000740930783   -0.0300
     19 Cl19      -11.4138   -1.0681   53.5340 Cl      1  ZINC000740930783   -0.0600
     20 C20        -7.9193    0.5788   52.6488 C.ar    1  ZINC000740930783   -0.1000
     21 C21        -7.0751    0.4388   51.5669 C.ar    1  ZINC000740930783   -0.0200
     22 Cl22       -6.7927   -1.1331   50.8863 Cl      1  ZINC000740930783   -0.0300
     23 C23        -6.4552    1.5536   51.0175 C.ar    1  ZINC000740930783    0.0900
     24 O24        -5.6248    1.4111   49.9522 O.3     1  ZINC000740930783   -0.2900
     25 C25        -4.2429    1.1804   50.2330 C.3     1  ZINC000740930783    0.0400
     26 C26        -3.4007    1.7764   49.1346 C.2     1  ZINC000740930783    0.5200
     27 N27        -2.1009    1.4378   49.0229 N.am    1  ZINC000740930783   -0.8500
     28 O28        -3.8925    2.5608   48.3512 O.2     1  ZINC000740930783   -0.5100
     29 H29        -5.6618    4.9747   52.7486 H       1  ZINC000740930783    0.0600
     30 H30        -4.3371    3.9406   52.1619 H       1  ZINC000740930783    0.0600
     31 H31        -4.7266    5.4555   51.3124 H       1  ZINC000740930783    0.1100
     32 H32        -7.6934    3.9427   53.0688 H       1  ZINC000740930783    0.1600
     33 H33        -8.6313    0.1947   55.1592 H       1  ZINC000740930783    0.4100
     34 H34        -9.6066    0.6707   57.2848 H       1  ZINC000740930783    0.0900
     35 H35       -10.1910    2.2175   56.6259 H       1  ZINC000740930783    0.0800
     36 H36       -12.1930    0.8112   57.9363 H       1  ZINC000740930783    0.3800
     37 H37       -11.1854   -0.9297   58.3715 H       1  ZINC000740930783    0.1300
     38 H38       -11.0007   -3.3745   58.5995 H       1  ZINC000740930783    0.1300
     39 H39       -10.9941   -4.8016   56.5934 H       1  ZINC000740930783    0.1400
     40 H40       -11.1741   -3.7848   54.3580 H       1  ZINC000740930783    0.1400
     41 H41        -8.4033   -0.2890   53.0721 H       1  ZINC000740930783    0.1500
     42 H42        -3.9826    1.6460   51.1836 H       1  ZINC000740930783    0.0900
     43 H43        -4.0580    0.1078   50.2913 H       1  ZINC000740930783    0.0900
     44 H44        -1.5590    1.8205   48.3152 H       1  ZINC000740930783    0.4000
     45 H45        -1.7073    0.8114   49.6503 H       1  ZINC000740930783    0.4100
@<TRIPOS>BOND
     1     1     2    1
     2     1    29    1
     3     1    30    1
     4     1    31    1
     5     2     3    1
     6     3    23   ar
     7     3     4   ar
     8     4     5   ar
     9     4    32    1
    10     5     6    1
    11     5    20   ar
    12     6     7    2
    13     6     8   am
    14     8     9    1
    15     8    33    1
    16     9    10    1
    17     9    34    1
    18     9    35    1
    19    10    11    1
    20    10    12    1
    21    10    13    1
    22    12    36    1
    23    13    18   ar
    24    13    14   ar
    25    14    15   ar
    26    14    37    1
    27    15    16   ar
    28    15    38    1
    29    16    17   ar
    30    16    39    1
    31    17    18   ar
    32    17    40    1
    33    18    19    1
    34    20    21   ar
    35    20    41    1
    36    21    22    1
    37    21    23   ar
    38    23    24    1
    39    24    25    1
    40    25    26    1
    41    25    42    1
    42    25    43    1
    43    26    27   am
    44    26    28    2
    45    27    44    1
    46    27    45    1
@<TRIPOS>SUBSTRUCTURE
     1 ZINC000740930783        1 TEMP              0 ****  ****    0 ROOT


##########                                Name:    ZINC000963156778
##########                DOCK_Rotatable_Bonds:                   6
##########                         Heavy_Atoms:                  24
##########                    Molecular_Weight:             349.414
##########                DOCK_Rotatable_Bonds:                   6
##########                       Formal_Charge:         -0.00999984
##########                     HBond_Acceptors:                   9
##########                        HBond_Donors:                   2
##########                         Heavy_Atoms:                  24
##########                          Grid_Score:          -37.826160
##########                     Grid_vdw_energy:          -36.289776
##########                      Grid_es_energy:           -1.536386
##########           Internal_energy_repulsive:           10.161084

@<TRIPOS>MOLECULE
ZINC000963156778
 43 46 1 0 0
SMALL
USER_CHARGES


@<TRIPOS>ATOM
      1 C1        -13.9804   -2.0555   55.6451 C.3     1  ZINC000963156778   -0.0800
      2 C2        -13.1672   -2.7432   54.5788 C.2     1  ZINC000963156778    0.0300
      3 C3        -12.2346   -2.1176   53.8235 C.2     1  ZINC000963156778   -0.2600
      4 C4        -11.8196   -0.6697   53.8753 C.3     1  ZINC000963156778    0.1300
      5 N5        -10.3535   -0.5812   53.9018 N.3     1  ZINC000963156778   -0.5000
      6 C6         -9.9092    0.7585   54.3649 C.3     1  ZINC000963156778    0.0600
      7 C7         -8.4631    0.8913   53.8412 C.3     1  ZINC000963156778   -0.1700
      8 H8         -7.6628    0.9550   54.5785 H       1  ZINC000963156778    0.1200
      9 C9         -8.3835   -0.0684   52.6362 C.3     1  ZINC000963156778   -0.1700
     10 H10        -7.5176   -0.7090   52.4687 H       1  ZINC000963156778    0.1200
     11 C11        -9.7882   -0.7004   52.5332 C.3     1  ZINC000963156778    0.0600
     12 C12        -8.2525    1.4848   52.4468 C.3     1  ZINC000963156778    0.1200
     13 H13        -9.0911    2.0071   51.9864 H       1  ZINC000963156778    0.1400
     14 N14        -6.9254    2.0165   52.1268 N.am    1  ZINC000963156778   -0.7000
     15 C15        -6.7122    2.6306   50.9462 C.2     1  ZINC000963156778    0.5100
     16 O16        -7.6193    2.7444   50.1493 O.2     1  ZINC000963156778   -0.5000
     17 C17        -5.3466    3.1760   50.6165 C.3     1  ZINC000963156778   -0.1300
     18 C18        -4.2757    2.1963   51.1004 C.3     1  ZINC000963156778   -0.1100
     19 H19        -4.4827    1.8773   52.1219 H       1  ZINC000963156778    0.1300
     20 C20        -2.8742    2.8329   51.0041 C.3     1  ZINC000963156778   -0.1600
     21 C21        -2.1417    1.9327   50.0332 C.2     1  ZINC000963156778    0.5300
     22 O22        -0.9933    2.0761   49.6723 O.2     1  ZINC000963156778   -0.4800
     23 N23        -2.9627    0.9524   49.6363 N.am    1  ZINC000963156778   -0.6900
     24 C24        -4.1906    1.0013   50.1762 C.2     1  ZINC000963156778    0.5200
     25 O25        -5.0864    0.2149   49.9554 O.2     1  ZINC000963156778   -0.4500
     26 S26       -11.6303   -3.3548   52.7907 S.3     1  ZINC000963156778    0.4500
     27 N27       -12.5425   -4.4946   53.3549 N.2     1  ZINC000963156778   -0.2900
     28 N28       -13.2810   -4.0216   54.2816 N.2     1  ZINC000963156778   -0.2400
     29 H29       -13.4552   -2.1161   56.5982 H       1  ZINC000963156778    0.0900
     30 H30       -14.1234   -1.0093   55.3749 H       1  ZINC000963156778    0.0800
     31 H31       -14.9509   -2.5439   55.7334 H       1  ZINC000963156778    0.0800
     32 H32       -12.1991   -0.1512   52.9949 H       1  ZINC000963156778    0.1000
     33 H33       -12.2278   -0.2068   54.7737 H       1  ZINC000963156778    0.0700
     34 H34       -10.5413    1.5372   53.9378 H       1  ZINC000963156778    0.0600
     35 H35        -9.9255    0.8092   55.4535 H       1  ZINC000963156778    0.0800
     36 H36        -9.7132   -1.7483   52.2427 H       1  ZINC000963156778    0.1000
     37 H37       -10.4012   -0.1501   51.8194 H       1  ZINC000963156778    0.0500
     38 H38        -6.2002    1.9265   52.7647 H       1  ZINC000963156778    0.4000
     39 H39        -5.2584    3.3072   49.5381 H       1  ZINC000963156778    0.1000
     40 H40        -5.2100    4.1374   51.1118 H       1  ZINC000963156778    0.1200
     41 H41        -2.9400    3.8476   50.6114 H       1  ZINC000963156778    0.1200
     42 H42        -2.3830    2.8282   51.9771 H       1  ZINC000963156778    0.1300
     43 H43        -2.6921    0.2623   49.0108 H       1  ZINC000963156778    0.4200
@<TRIPOS>BOND
     1     1     2    1
     2     1    29    1
     3     1    30    1
     4     1    31    1
     5     2    28    1
     6     2     3    2
     7     3     4    1
     8     3    26    1
     9     4     5    1
    10     4    32    1
    11     4    33    1
    12     5    11    1
    13     5     6    1
    14     6     7    1
    15     6    34    1
    16     6    35    1
    17     7     8    1
    18     7    12    1
    19     7     9    1
    20     9    10    1
    21     9    11    1
    22     9    12    1
    23    11    36    1
    24    11    37    1
    25    12    13    1
    26    12    14    1
    27    14    15   am
    28    14    38    1
    29    15    16    2
    30    15    17    1
    31    17    18    1
    32    17    39    1
    33    17    40    1
    34    18    19    1
    35    18    24    1
    36    18    20    1
    37    20    21    1
    38    20    41    1
    39    20    42    1
    40    21    22    2
    41    21    23   am
    42    23    24   am
    43    23    43    1
    44    24    25    2
    45    26    27    1
    46    27    28    2
@<TRIPOS>SUBSTRUCTURE
     1 ZINC000963156778        1 TEMP              0 ****  ****    0 ROOT


##########                                Name:    ZINC000771225867
##########                DOCK_Rotatable_Bonds:                   9
##########                         Heavy_Atoms:                  23
##########                    Molecular_Weight:             355.802
##########                DOCK_Rotatable_Bonds:                   9
##########                       Formal_Charge:        -3.12924e-07
##########                     HBond_Acceptors:                   9
##########                        HBond_Donors:                   3
##########                         Heavy_Atoms:                  23
##########                          Grid_Score:          -37.807404
##########                     Grid_vdw_energy:          -34.122810
##########                      Grid_es_energy:           -3.684595
##########           Internal_energy_repulsive:            5.024981

@<TRIPOS>MOLECULE
ZINC000771225867
 37 38 1 0 0
SMALL
USER_CHARGES


@<TRIPOS>ATOM
      1 C1          2.5386    1.1262   46.5167 C.3     1  ZINC000771225867    0.0400
      2 O2          3.6214    1.6185   47.3089 O.3     1  ZINC000771225867   -0.3600
      3 C3          3.3008    2.3218   48.4154 C.2     1  ZINC000771225867    0.5500
      4 O4          4.0152    3.2356   48.7838 O.2     1  ZINC000771225867   -0.4900
      5 C5          2.1339    1.9964   49.1472 C.2     1  ZINC000771225867   -0.3400
      6 C6          2.0805    1.2353   50.2857 C.2     1  ZINC000771225867    0.2700
      7 Cl7         3.4876    0.5348   51.0224 Cl      1  ZINC000771225867    0.0400
      8 N8          0.8728    1.0845   50.7678 N.2     1  ZINC000771225867   -0.5500
      9 C9         -0.1029    1.6599   50.1248 C.2     1  ZINC000771225867    0.3400
     10 N10        -1.4287    1.6023   50.4954 N.pl3   1  ZINC000771225867   -0.6700
     11 C11        -2.4640    1.3874   49.4816 C.3     1  ZINC000771225867    0.1700
     12 C12        -3.7809    1.9166   49.9885 C.ar    1  ZINC000771225867   -0.0800
     13 C13        -3.9197    3.2614   50.2775 C.ar    1  ZINC000771225867   -0.1300
     14 C14        -5.1267    3.7500   50.7428 C.ar    1  ZINC000771225867   -0.0800
     15 C15        -6.1971    2.8952   50.9199 C.ar    1  ZINC000771225867   -0.2000
     16 C16        -6.0605    1.5451   50.6304 C.ar    1  ZINC000771225867    0.1300
     17 O17        -7.1123    0.7020   50.8034 O.3     1  ZINC000771225867   -0.2900
     18 C18        -7.6436    0.5905   52.1252 C.3     1  ZINC000771225867    0.0400
     19 C19        -8.3178   -0.7479   52.2843 C.2     1  ZINC000771225867    0.5200
     20 N20        -7.5931   -1.8814   52.2032 N.am    1  ZINC000771225867   -0.8500
     21 O21        -9.5125   -0.8051   52.4852 O.2     1  ZINC000771225867   -0.5200
     22 C22        -4.8503    1.0583   50.1585 C.ar    1  ZINC000771225867   -0.1200
     23 S23         0.4912    2.5034   48.7622 S.3     1  ZINC000771225867    0.2200
     24 H24         1.9215    0.4595   47.1191 H       1  ZINC000771225867    0.0600
     25 H25         1.9344    1.9633   46.1669 H       1  ZINC000771225867    0.0600
     26 H26         2.9340    0.5804   45.6600 H       1  ZINC000771225867    0.1000
     27 H27        -1.6765    1.7040   51.4278 H       1  ZINC000771225867    0.4200
     28 H28        -2.1902    1.9115   48.5658 H       1  ZINC000771225867    0.0900
     29 H29        -2.5559    0.3210   49.2763 H       1  ZINC000771225867    0.0900
     30 H30        -3.0838    3.9313   50.1401 H       1  ZINC000771225867    0.1300
     31 H31        -5.2325    4.8009   50.9682 H       1  ZINC000771225867    0.1300
     32 H32        -7.1395    3.2773   51.2836 H       1  ZINC000771225867    0.1300
     33 H33        -6.8349    0.6784   52.8505 H       1  ZINC000771225867    0.1000
     34 H34        -8.3703    1.3854   52.2930 H       1  ZINC000771225867    0.1000
     35 H35        -8.0268   -2.7428   52.3068 H       1  ZINC000771225867    0.4000
     36 H36        -6.6378   -1.8357   52.0414 H       1  ZINC000771225867    0.4100
     37 H37        -4.7413    0.0079   49.9325 H       1  ZINC000771225867    0.1400
@<TRIPOS>BOND
     1     1     2    1
     2     1    24    1
     3     1    25    1
     4     1    26    1
     5     2     3    1
     6     3     4    2
     7     3     5    1
     8     5    23    1
     9     5     6    2
    10     6     7    1
    11     6     8    1
    12     8     9    2
    13     9    10    1
    14     9    23    1
    15    10    11    1
    16    10    27    1
    17    11    12    1
    18    11    28    1
    19    11    29    1
    20    12    22   ar
    21    12    13   ar
    22    13    14   ar
    23    13    30    1
    24    14    15   ar
    25    14    31    1
    26    15    16   ar
    27    15    32    1
    28    16    17    1
    29    16    22   ar
    30    17    18    1
    31    18    19    1
    32    18    33    1
    33    18    34    1
    34    19    20   am
    35    19    21    2
    36    20    35    1
    37    20    36    1
    38    22    37    1
@<TRIPOS>SUBSTRUCTURE
     1 ZINC000771225867        1 TEMP              0 ****  ****    0 ROOT


##########                                Name:    ZINC000470948647
##########                DOCK_Rotatable_Bonds:                   6
##########                         Heavy_Atoms:                  29
##########                    Molecular_Weight:             412.556
##########                DOCK_Rotatable_Bonds:                   6
##########                       Formal_Charge:           0.0100001
##########                     HBond_Acceptors:                   7
##########                        HBond_Donors:                   1
##########                         Heavy_Atoms:                  29
##########                          Grid_Score:          -37.784691
##########                     Grid_vdw_energy:          -36.263851
##########                      Grid_es_energy:           -1.520841
##########           Internal_energy_repulsive:           15.824871

@<TRIPOS>MOLECULE
ZINC000470948647
 57 60 1 0 0
SMALL
USER_CHARGES


@<TRIPOS>ATOM
      1 C1        -12.0995   -2.9942   53.4175 C.3     1  ZINC000470948647   -0.1100
      2 C2        -11.1667   -1.8148   53.3191 C.ar    1  ZINC000470948647   -0.1000
      3 C3        -10.0381   -1.8924   52.5242 C.ar    1  ZINC000470948647   -0.1100
      4 C4         -9.1811   -0.8130   52.4318 C.ar    1  ZINC000470948647   -0.1100
      5 C5         -9.4541    0.3508   53.1380 C.ar    1  ZINC000470948647    0.1400
      6 N6         -8.5882    1.4461   53.0463 N.am    1  ZINC000470948647   -0.6700
      7 C7         -8.8757    2.4643   52.2114 C.2     1  ZINC000470948647    0.5100
      8 O8         -9.8851    2.4313   51.5397 O.2     1  ZINC000470948647   -0.4800
      9 C9         -7.9432    3.6441   52.1126 C.3     1  ZINC000470948647    0.1200
     10 H10        -8.3218    4.3260   51.3513 H       1  ZINC000470948647    0.1200
     11 C11        -7.9247    4.3782   53.4726 C.3     1  ZINC000470948647   -0.0700
     12 S12        -6.3994    3.6844   54.2376 S.3     1  ZINC000470948647   -0.2500
     13 C13        -5.5283    3.4909   52.6276 C.3     1  ZINC000470948647    0.1600
     14 N14        -6.6300    3.1693   51.7040 N.am    1  ZINC000470948647   -0.6000
     15 C15        -6.4365    2.4856   50.5587 C.2     1  ZINC000470948647    0.6300
     16 O16        -7.3778    2.2451   49.8279 O.2     1  ZINC000470948647   -0.5100
     17 C17        -5.0808    2.0286   50.1913 C.2     1  ZINC000470948647   -0.0100
     18 N18        -4.0057    2.7813   50.0687 N.2     1  ZINC000470948647   -0.2700
     19 N19        -2.9968    2.0584   49.7374 N.pl3   1  ZINC000470948647   -0.2700
     20 C20        -1.6400    2.5647   49.5155 C.3     1  ZINC000470948647    0.1500
     21 C21        -1.3545    3.7047   50.4952 C.3     1  ZINC000470948647   -0.1300
     22 C22         0.0625    4.2333   50.2636 C.3     1  ZINC000470948647   -0.1200
     23 C23         1.0709    3.1045   50.4866 C.3     1  ZINC000470948647   -0.1300
     24 C24         0.7853    1.9645   49.5069 C.3     1  ZINC000470948647   -0.1200
     25 C25        -0.6316    1.4358   49.7386 C.3     1  ZINC000470948647   -0.1300
     26 C26        -3.3666    0.7647   49.6231 C.2     1  ZINC000470948647   -0.0100
     27 C27        -4.6878    0.6986   49.9101 C.2     1  ZINC000470948647   -0.1700
     28 C28       -10.5890    0.4257   53.9354 C.ar    1  ZINC000470948647   -0.1100
     29 C29       -10.8894    1.6872   54.7031 C.3     1  ZINC000470948647   -0.1100
     30 C30       -11.4443   -0.6551   54.0196 C.ar    1  ZINC000470948647   -0.1000
     31 H31       -12.8596   -2.9223   52.6394 H       1  ZINC000470948647    0.0700
     32 H32       -11.5336   -3.9169   53.2885 H       1  ZINC000470948647    0.0700
     33 H33       -12.5803   -2.9967   54.3958 H       1  ZINC000470948647    0.0700
     34 H34        -9.8262   -2.7979   51.9751 H       1  ZINC000470948647    0.1200
     35 H35        -8.2992   -0.8745   51.8112 H       1  ZINC000470948647    0.1400
     36 H36        -7.7810    1.4726   53.5836 H       1  ZINC000470948647    0.4100
     37 H37        -7.8382    5.4560   53.3346 H       1  ZINC000470948647    0.1200
     38 H38        -8.8066    4.1304   54.0633 H       1  ZINC000470948647    0.1200
     39 H39        -5.0387    4.4210   52.3388 H       1  ZINC000470948647    0.1000
     40 H40        -4.8099    2.6723   52.6726 H       1  ZINC000470948647    0.1400
     41 H41        -1.5523    2.9334   48.4936 H       1  ZINC000470948647    0.1100
     42 H42        -2.0729    4.5088   50.3363 H       1  ZINC000470948647    0.0800
     43 H43        -1.4421    3.3359   51.5173 H       1  ZINC000470948647    0.0800
     44 H44         0.1501    4.6021   49.2416 H       1  ZINC000470948647    0.0700
     45 H45         0.2659    5.0455   50.9616 H       1  ZINC000470948647    0.0800
     46 H46         2.0803    3.4811   50.3216 H       1  ZINC000470948647    0.0700
     47 H47         0.9832    2.7357   51.5087 H       1  ZINC000470948647    0.0700
     48 H48         0.8729    2.3333   48.4850 H       1  ZINC000470948647    0.0700
     49 H49         1.5037    1.1603   49.6659 H       1  ZINC000470948647    0.0700
     50 H50        -0.7193    1.0671   50.7606 H       1  ZINC000470948647    0.0700
     51 H51        -0.8351    0.6237   49.0407 H       1  ZINC000470948647    0.0700
     52 H52        -2.7265   -0.0635   49.3571 H       1  ZINC000470948647    0.1800
     53 H53        -5.3121   -0.1826   49.9161 H       1  ZINC000470948647    0.1600
     54 H54       -11.4997    2.3495   54.0892 H       1  ZINC000470948647    0.0700
     55 H55       -11.4304    1.4369   55.6157 H       1  ZINC000470948647    0.0700
     56 H56        -9.9557    2.1875   54.9597 H       1  ZINC000470948647    0.0600
     57 H57       -12.3270   -0.5973   54.6392 H       1  ZINC000470948647    0.1300
@<TRIPOS>BOND
     1     1     2    1
     2     1    31    1
     3     1    32    1
     4     1    33    1
     5     2    30   ar
     6     2     3   ar
     7     3     4   ar
     8     3    34    1
     9     4     5   ar
    10     4    35    1
    11     5     6    1
    12     5    28   ar
    13     6     7   am
    14     6    36    1
    15     7     8    2
    16     7     9    1
    17     9    10    1
    18     9    14    1
    19     9    11    1
    20    11    12    1
    21    11    37    1
    22    11    38    1
    23    12    13    1
    24    13    14    1
    25    13    39    1
    26    13    40    1
    27    14    15   am
    28    15    16    2
    29    15    17    1
    30    17    27    1
    31    17    18    2
    32    18    19    1
    33    19    20    1
    34    19    26    1
    35    20    25    1
    36    20    21    1
    37    20    41    1
    38    21    22    1
    39    21    42    1
    40    21    43    1
    41    22    23    1
    42    22    44    1
    43    22    45    1
    44    23    24    1
    45    23    46    1
    46    23    47    1
    47    24    25    1
    48    24    48    1
    49    24    49    1
    50    25    50    1
    51    25    51    1
    52    26    27    2
    53    26    52    1
    54    27    53    1
    55    28    29    1
    56    28    30   ar
    57    29    54    1
    58    29    55    1
    59    29    56    1
    60    30    57    1
@<TRIPOS>SUBSTRUCTURE
     1 ZINC000470948647        1 TEMP              0 ****  ****    0 ROOT


##########                                Name:    ZINC001000186632
##########                DOCK_Rotatable_Bonds:                   7
##########                         Heavy_Atoms:                  23
##########                    Molecular_Weight:             342.379
##########                DOCK_Rotatable_Bonds:                   7
##########                       Formal_Charge:          -0.0100001
##########                     HBond_Acceptors:                  11
##########                        HBond_Donors:                   2
##########                         Heavy_Atoms:                  23
##########                          Grid_Score:          -37.781441
##########                     Grid_vdw_energy:          -33.780918
##########                      Grid_es_energy:           -4.000522
##########           Internal_energy_repulsive:            4.803386

@<TRIPOS>MOLECULE
ZINC001000186632
 41 43 1 0 0
SMALL
USER_CHARGES


@<TRIPOS>ATOM
      1 O1        -11.9301    2.7865   52.6880 O.2     1  ZINC001000186632   -0.5200
      2 C2        -11.8363    1.6875   52.1837 C.2     1  ZINC001000186632    0.5300
      3 C3        -12.9406    1.1672   51.3000 C.3     1  ZINC001000186632   -0.0500
      4 C4        -12.7829    1.7341   49.9126 C.2     1  ZINC001000186632    0.2400
      5 N5        -13.2187    1.1800   48.8117 N.2     1  ZINC001000186632   -0.3000
      6 N6        -12.8614    2.0365   47.7575 N.pl3   1  ZINC001000186632   -0.4800
      7 C7        -12.2172    3.0758   48.3159 C.2     1  ZINC001000186632    0.2700
      8 N8        -12.1818    2.8839   49.6096 N.2     1  ZINC001000186632   -0.5400
      9 N9        -10.7419    0.9338   52.4090 N.am    1  ZINC001000186632   -0.7100
     10 C10        -9.6684    1.4395   53.2680 C.3     1  ZINC001000186632    0.1100
     11 C11        -8.4641    0.4872   53.3807 C.3     1  ZINC001000186632    0.1000
     12 N12        -7.9096    1.2129   52.2215 N.am    1  ZINC001000186632   -0.6500
     13 C13        -7.0279    0.9068   51.2491 C.2     1  ZINC001000186632    0.5100
     14 O14        -6.5083   -0.1889   51.2246 O.2     1  ZINC001000186632   -0.5100
     15 C15        -6.6877    1.9259   50.1923 C.3     1  ZINC001000186632    0.1500
     16 N16        -5.3178    2.4031   50.3972 N.am    1  ZINC001000186632   -0.9800
     17 C17        -4.8867    3.4228   51.3652 C.3     1  ZINC001000186632    0.0800
     18 C18        -3.4341    3.1561   51.8039 C.3     1  ZINC001000186632   -0.1300
     19 C19        -2.6819    2.8496   50.4767 C.3     1  ZINC001000186632   -0.6000
     20 S20        -3.9573    1.8840   49.5795 S.o2    1  ZINC001000186632    2.5700
     21 O21        -3.8506    0.4967   49.8680 O.2     1  ZINC001000186632   -0.9400
     22 O22        -4.1255    2.3616   48.2518 O.2     1  ZINC001000186632   -0.9600
     23 C23        -8.7081    2.4084   52.5546 C.3     1  ZINC001000186632    0.0900
     24 H24       -12.8887    0.0793   51.2560 H       1  ZINC001000186632    0.1300
     25 H25       -13.9052    1.4688   51.7082 H       1  ZINC001000186632    0.1200
     26 H26       -13.0432    1.9042   46.8139 H       1  ZINC001000186632    0.4400
     27 H27       -11.8039    3.9232   47.7889 H       1  ZINC001000186632    0.2200
     28 H28       -10.6652    0.0564   52.0024 H       1  ZINC001000186632    0.4100
     29 H29       -10.0301    1.8077   54.2281 H       1  ZINC001000186632    0.1200
     30 H30        -7.8868    0.6154   54.2964 H       1  ZINC001000186632    0.1000
     31 H31        -8.7067   -0.5546   53.1717 H       1  ZINC001000186632    0.0900
     32 H32        -6.7693    1.4681   49.2065 H       1  ZINC001000186632    0.1100
     33 H33        -7.3791    2.7656   50.2615 H       1  ZINC001000186632    0.1100
     34 H34        -4.9494    4.4084   50.9038 H       1  ZINC001000186632    0.0800
     35 H35        -5.5391    3.3915   52.2377 H       1  ZINC001000186632    0.0900
     36 H36        -3.0132    4.0387   52.2855 H       1  ZINC001000186632    0.1100
     37 H37        -3.3899    2.2976   52.4740 H       1  ZINC001000186632    0.1000
     38 H38        -2.4320    3.7677   49.9449 H       1  ZINC001000186632    0.1400
     39 H39        -1.7916    2.2477   50.6588 H       1  ZINC001000186632    0.1400
     40 H40        -9.1457    2.9004   51.6859 H       1  ZINC001000186632    0.0900
     41 H41        -8.2026    3.1010   53.2275 H       1  ZINC001000186632    0.1100
@<TRIPOS>BOND
     1     1     2    2
     2     2     3    1
     3     2     9   am
     4     3     4    1
     5     3    24    1
     6     3    25    1
     7     4     8    1
     8     4     5    2
     9     5     6    1
    10     6     7    1
    11     6    26    1
    12     7     8    2
    13     7    27    1
    14     9    10    1
    15     9    28    1
    16    10    23    1
    17    10    11    1
    18    10    29    1
    19    11    12    1
    20    11    30    1
    21    11    31    1
    22    12    13   am
    23    12    23    1
    24    13    14    2
    25    13    15    1
    26    15    16    1
    27    15    32    1
    28    15    33    1
    29    16    20   am
    30    16    17    1
    31    17    18    1
    32    17    34    1
    33    17    35    1
    34    18    19    1
    35    18    36    1
    36    18    37    1
    37    19    20    1
    38    19    38    1
    39    19    39    1
    40    20    21    2
    41    20    22    2
    42    23    40    1
    43    23    41    1
@<TRIPOS>SUBSTRUCTURE
     1 ZINC001000186632        1 TEMP              0 ****  ****    0 ROOT


##########                                Name:    ZINC000451019064
##########                DOCK_Rotatable_Bonds:                   8
##########                         Heavy_Atoms:                  23
##########                    Molecular_Weight:             346.534
##########                DOCK_Rotatable_Bonds:                   8
##########                       Formal_Charge:          -0.0200008
##########                     HBond_Acceptors:                   6
##########                        HBond_Donors:                   1
##########                         Heavy_Atoms:                  23
##########                          Grid_Score:          -37.726658
##########                     Grid_vdw_energy:          -37.031822
##########                      Grid_es_energy:           -0.694835
##########           Internal_energy_repulsive:            7.526740

@<TRIPOS>MOLECULE
ZINC000451019064
 57 58 1 0 0
SMALL
USER_CHARGES


@<TRIPOS>ATOM
      1 C1         -2.3164    1.7604   49.4912 C.3     1  ZINC000451019064   -0.1500
      2 C2         -3.3796    1.8093   50.5904 C.3     1  ZINC000451019064    0.0900
      3 H3         -2.9882    1.3460   51.4961 H       1  ZINC000451019064    0.0700
      4 C4         -4.6281    1.0534   50.1279 C.3     1  ZINC000451019064    0.0200
      5 N5         -5.6732    1.1689   51.1553 N.3     1  ZINC000451019064   -0.5400
      6 C6         -6.8712    0.4085   50.7755 C.3     1  ZINC000451019064    0.0600
      7 C7         -7.4472   -0.2865   52.0110 C.3     1  ZINC000451019064   -0.1300
      8 C8         -8.6655    0.4915   52.5122 C.3     1  ZINC000451019064    0.1100
      9 N9         -9.3459   -0.2839   53.5523 N.am    1  ZINC000451019064   -1.1200
     10 S10       -10.6442   -1.2344   53.1605 S.o2    1  ZINC000451019064    2.6100
     11 O11       -11.6293   -0.3142   52.7108 O.2     1  ZINC000451019064   -0.9600
     12 O12       -10.1074   -2.2182   52.2869 O.2     1  ZINC000451019064   -0.9500
     13 C13       -11.1462   -1.9858   54.7334 C.3     1  ZINC000451019064   -0.6300
     14 C14       -12.3025   -2.9573   54.4886 C.3     1  ZINC000451019064   -0.1100
     15 C15       -12.7882   -3.5195   55.8261 C.3     1  ZINC000451019064   -0.0800
     16 C16       -13.4885   -2.4147   56.6196 C.3     1  ZINC000451019064   -0.1200
     17 C17       -13.9741   -2.9769   57.9572 C.3     1  ZINC000451019064   -0.1200
     18 C18       -14.9559   -4.1224   57.7025 C.3     1  ZINC000451019064   -0.1200
     19 C19       -14.2556   -5.2274   56.9089 C.3     1  ZINC000451019064   -0.1200
     20 C20       -13.7699   -4.6650   55.5714 C.3     1  ZINC000451019064   -0.1200
     21 C21        -6.0024    2.5795   51.4072 C.3     1  ZINC000451019064    0.0200
     22 C22        -4.7402    3.3201   51.8568 C.3     1  ZINC000451019064    0.0900
     23 H23        -4.3888    2.9012   52.7998 H       1  ZINC000451019064    0.0700
     24 C24        -5.0584    4.8049   52.0444 C.3     1  ZINC000451019064   -0.1500
     25 O25        -3.7245    3.1705   50.8610 O.3     1  ZINC000451019064   -0.3800
     26 H26        -1.4284    2.3001   49.8204 H       1  ZINC000451019064    0.0700
     27 H27        -2.0551    0.7227   49.2844 H       1  ZINC000451019064    0.0700
     28 H28        -2.7083    2.2238   48.5858 H       1  ZINC000451019064    0.0600
     29 H29        -4.9879    1.4826   49.1928 H       1  ZINC000451019064    0.0400
     30 H30        -4.3818    0.0025   49.9759 H       1  ZINC000451019064    0.0900
     31 H31        -7.6160    1.0874   50.3603 H       1  ZINC000451019064    0.0400
     32 H32        -6.6051   -0.3397   50.0288 H       1  ZINC000451019064    0.0800
     33 H33        -7.7463   -1.3016   51.7504 H       1  ZINC000451019064    0.0800
     34 H34        -6.6902   -0.3205   52.7946 H       1  ZINC000451019064    0.0800
     35 H35        -8.3417    1.4472   52.9248 H       1  ZINC000451019064    0.0800
     36 H36        -9.3507    0.6672   51.6830 H       1  ZINC000451019064    0.0700
     37 H37        -9.0361   -0.2408   54.4705 H       1  ZINC000451019064    0.4200
     38 H38       -10.3027   -2.5259   55.1637 H       1  ZINC000451019064    0.1300
     39 H39       -11.4673   -1.2051   55.4230 H       1  ZINC000451019064    0.1400
     40 H40       -13.1209   -2.4315   53.9968 H       1  ZINC000451019064    0.0800
     41 H41       -11.9619   -3.7747   53.8530 H       1  ZINC000451019064    0.0800
     42 H42       -11.9359   -3.8911   56.3950 H       1  ZINC000451019064    0.0800
     43 H43       -12.7891   -1.5986   56.8011 H       1  ZINC000451019064    0.0600
     44 H44       -14.3407   -2.0430   56.0507 H       1  ZINC000451019064    0.0700
     45 H45       -13.1219   -3.3485   58.5260 H       1  ZINC000451019064    0.0600
     46 H46       -14.4730   -2.1898   58.5225 H       1  ZINC000451019064    0.0600
     47 H47       -15.3019   -4.5230   58.6553 H       1  ZINC000451019064    0.0600
     48 H48       -15.8081   -3.7508   57.1336 H       1  ZINC000451019064    0.0600
     49 H49       -13.4034   -5.5990   57.4778 H       1  ZINC000451019064    0.0600
     50 H50       -14.9550   -6.0435   56.7275 H       1  ZINC000451019064    0.0600
     51 H51       -14.6222   -4.2935   55.0025 H       1  ZINC000451019064    0.0700
     52 H52       -13.2711   -5.4523   55.0061 H       1  ZINC000451019064    0.0600
     53 H53        -6.3841    3.0331   50.4925 H       1  ZINC000451019064    0.0400
     54 H54        -6.7593    2.6426   52.1890 H       1  ZINC000451019064    0.0900
     55 H55        -5.8344    4.9172   52.8015 H       1  ZINC000451019064    0.0700
     56 H56        -4.1594    5.3315   52.3644 H       1  ZINC000451019064    0.0700
     57 H57        -5.4082    5.2235   51.1007 H       1  ZINC000451019064    0.0600
@<TRIPOS>BOND
     1     1     2    1
     2     1    26    1
     3     1    27    1
     4     1    28    1
     5     2     3    1
     6     2    25    1
     7     2     4    1
     8     4     5    1
     9     4    29    1
    10     4    30    1
    11     5     6    1
    12     5    21    1
    13     6     7    1
    14     6    31    1
    15     6    32    1
    16     7     8    1
    17     7    33    1
    18     7    34    1
    19     8     9    1
    20     8    35    1
    21     8    36    1
    22     9    10   am
    23     9    37    1
    24    10    11    2
    25    10    12    2
    26    10    13    1
    27    13    14    1
    28    13    38    1
    29    13    39    1
    30    14    15    1
    31    14    40    1
    32    14    41    1
    33    15    20    1
    34    15    16    1
    35    15    42    1
    36    16    17    1
    37    16    43    1
    38    16    44    1
    39    17    18    1
    40    17    45    1
    41    17    46    1
    42    18    19    1
    43    18    47    1
    44    18    48    1
    45    19    20    1
    46    19    49    1
    47    19    50    1
    48    20    51    1
    49    20    52    1
    50    21    22    1
    51    21    53    1
    52    21    54    1
    53    22    23    1
    54    22    24    1
    55    22    25    1
    56    24    55    1
    57    24    56    1
    58    24    57    1
@<TRIPOS>SUBSTRUCTURE
     1 ZINC000451019064        1 TEMP              0 ****  ****    0 ROOT


##########                                Name:    ZINC000918875053
##########                DOCK_Rotatable_Bonds:                   6
##########                         Heavy_Atoms:                  26
##########                    Molecular_Weight:             359.357
##########                DOCK_Rotatable_Bonds:                   6
##########                       Formal_Charge:           0.0200003
##########                     HBond_Acceptors:                   8
##########                        HBond_Donors:                   0
##########                         Heavy_Atoms:                  26
##########                          Grid_Score:          -37.723507
##########                     Grid_vdw_energy:          -36.536270
##########                      Grid_es_energy:           -1.187238
##########           Internal_energy_repulsive:            7.601782

@<TRIPOS>MOLECULE
ZINC000918875053
 44 47 1 0 0
SMALL
USER_CHARGES


@<TRIPOS>ATOM
      1 C1        -11.8934   -0.6435   52.2632 C.3     1  ZINC000918875053   -0.1700
      2 C2        -10.8334   -1.1182   53.2593 C.3     1  ZINC000918875053    0.1900
      3 H3        -10.8638   -0.4897   54.1493 H       1  ZINC000918875053    0.1400
      4 O4        -11.1008   -2.4963   53.6305 O.3     1  ZINC000918875053   -0.3400
      5 C5        -12.2086   -2.7290   54.3519 C.2     1  ZINC000918875053    0.4800
      6 O6        -13.0299   -3.5232   53.9587 O.2     1  ZINC000918875053   -0.4900
      7 C7        -12.4281   -1.9997   55.6523 C.3     1  ZINC000918875053   -0.0900
      8 H8        -12.6929   -0.9577   55.4728 H       1  ZINC000918875053    0.1400
      9 C9        -13.5062   -2.7051   56.5073 C.3     1  ZINC000918875053   -0.1400
     10 C10       -13.0084   -2.5569   57.9281 C.2     1  ZINC000918875053    0.5300
     11 O11       -13.6841   -2.7218   58.9218 O.2     1  ZINC000918875053   -0.5000
     12 N12       -11.7081   -2.2161   57.9293 N.am    1  ZINC000918875053   -0.5800
     13 C13       -10.9503   -1.9943   59.0859 C.ar    1  ZINC000918875053    0.1000
     14 C14       -11.1766   -0.8647   59.8596 C.ar    1  ZINC000918875053   -0.0800
     15 C15       -10.4278   -0.6485   61.0006 C.ar    1  ZINC000918875053   -0.1200
     16 C16        -9.4531   -1.5555   61.3727 C.ar    1  ZINC000918875053   -0.0800
     17 C17        -9.2238   -2.6829   60.6050 C.ar    1  ZINC000918875053   -0.1500
     18 C18        -9.9732   -2.9086   59.4652 C.ar    1  ZINC000918875053    0.1100
     19 F19        -9.7496   -4.0099   58.7154 F       1  ZINC000918875053   -0.1300
     20 C20       -11.1842   -2.1053   56.5621 C.3     1  ZINC000918875053    0.1200
     21 C21        -9.4699   -1.0245   52.6245 C.2     1  ZINC000918875053    0.1800
     22 N22        -8.7212    0.0485   52.5369 N.2     1  ZINC000918875053   -0.4600
     23 C23        -7.6038   -0.3408   51.8977 C.2     1  ZINC000918875053    0.2100
     24 C24        -6.4247    0.5313   51.5513 C.3     1  ZINC000918875053   -0.0900
     25 C25        -5.5273    0.0804   50.3970 C.3     1  ZINC000918875053   -0.1600
     26 C26        -6.4649    1.2757   50.2152 C.3     1  ZINC000918875053   -0.1500
     27 N27        -7.7276   -1.6071   51.6339 N.2     1  ZINC000918875053   -0.3700
     28 O28        -8.7901   -2.0204   52.0483 O.3     1  ZINC000918875053    0.1000
     29 H29       -12.8797   -0.7112   52.7224 H       1  ZINC000918875053    0.0900
     30 H30       -11.6926    0.3909   51.9846 H       1  ZINC000918875053    0.0900
     31 H31       -11.8630   -1.2720   51.3732 H       1  ZINC000918875053    0.0800
     32 H32       -14.4709   -2.2121   56.3877 H       1  ZINC000918875053    0.1300
     33 H33       -13.5788   -3.7585   56.2366 H       1  ZINC000918875053    0.1100
     34 H34       -11.9372   -0.1547   59.5698 H       1  ZINC000918875053    0.1400
     35 H35       -10.6040    0.2308   61.6026 H       1  ZINC000918875053    0.1400
     36 H36        -8.8693   -1.3832   62.2647 H       1  ZINC000918875053    0.1400
     37 H37        -8.4616   -3.3896   60.8984 H       1  ZINC000918875053    0.1400
     38 H38       -10.6052   -2.9928   56.3070 H       1  ZINC000918875053    0.1000
     39 H39       -10.5680   -1.2114   56.4656 H       1  ZINC000918875053    0.1000
     40 H40        -5.9481    1.0336   52.3931 H       1  ZINC000918875053    0.1400
     41 H41        -4.4600    0.2858   50.4793 H       1  ZINC000918875053    0.1100
     42 H42        -5.7899   -0.8471   49.8881 H       1  ZINC000918875053    0.1000
     43 H43        -7.3443    1.1347   49.5868 H       1  ZINC000918875053    0.1000
     44 H44        -6.0143    2.2676   50.1780 H       1  ZINC000918875053    0.1100
@<TRIPOS>BOND
     1     1     2    1
     2     1    29    1
     3     1    30    1
     4     1    31    1
     5     2     3    1
     6     2     4    1
     7     2    21    1
     8     4     5    1
     9     5     6    2
    10     5     7    1
    11     7     8    1
    12     7    20    1
    13     7     9    1
    14     9    10    1
    15     9    32    1
    16     9    33    1
    17    10    11    2
    18    10    12   am
    19    12    13    1
    20    12    20    1
    21    13    18   ar
    22    13    14   ar
    23    14    15   ar
    24    14    34    1
    25    15    16   ar
    26    15    35    1
    27    16    17   ar
    28    16    36    1
    29    17    18   ar
    30    17    37    1
    31    18    19    1
    32    20    38    1
    33    20    39    1
    34    21    28    1
    35    21    22    2
    36    22    23    1
    37    23    24    1
    38    23    27    2
    39    24    26    1
    40    24    25    1
    41    24    40    1
    42    25    26    1
    43    25    41    1
    44    25    42    1
    45    26    43    1
    46    26    44    1
    47    27    28    1
@<TRIPOS>SUBSTRUCTURE
     1 ZINC000918875053        1 TEMP              0 ****  ****    0 ROOT


##########                                Name:     oleObject27.pdb
##########                DOCK_Rotatable_Bonds:                   9
##########                         Heavy_Atoms:                  35
##########                    Molecular_Weight:             513.466
##########                DOCK_Rotatable_Bonds:                   9
##########                       Formal_Charge:         0.000199873
##########                     HBond_Acceptors:                   8
##########                        HBond_Donors:                   1
##########                         Heavy_Atoms:                  35
##########                          Grid_Score:          -37.712540
##########                     Grid_vdw_energy:          -37.193497
##########                      Grid_es_energy:           -0.519045
##########           Internal_energy_repulsive:           14.035328

@<TRIPOS>MOLECULE
oleObject27.pdb
 65 68 1 0 0
SMALL
NO_CHARGES


@<TRIPOS>ATOM
      1 C          -8.9269   -3.5416   59.7475 C.ar    1  UNL        -0.0620
      2 C          -9.6728   -3.8262   58.5946 C.ar    1  UNL        -0.0590
      3 C         -10.4721   -2.8354   57.9917 C.ar    1  UNL        -0.0456
      4 C         -10.5181   -1.5343   58.5515 C.ar    1  UNL        -0.0187
      5 C          -9.7702   -1.2661   59.7191 C.ar    1  UNL        -0.0565
      6 C          -8.9786   -2.2606   60.3121 C.ar    1  UNL        -0.0619
      7 C         -11.3775   -0.4276   57.9202 C.3     1  UNL         0.0921
      8 C         -12.0012    0.5040   58.9642 C.ar    1  UNL         0.0681
      9 C         -12.9472    0.0459   59.9152 C.ar    1  UNL        -0.0272
     10 C         -13.4781    0.9748   60.8300 C.ar    1  UNL        -0.0559
     11 C         -13.0642    2.3131   60.7634 C.ar    1  UNL        -0.0435
     12 C         -12.1355    2.6815   59.7786 C.ar    1  UNL         0.0272
     13 N         -11.6214    1.8010   58.8995 N.ar    1  UNL        -0.2587
     14 C         -13.4126   -1.4048   59.9685 C.3     1  UNL        -0.0379
     15 N         -10.6520    0.3540   56.9083 N.am    1  UNL        -0.2865
     16 C         -11.2580    0.9834   55.8360 C.2     1  UNL         0.3014
     17 O         -12.4627    0.9259   55.6532 O.2     1  UNL        -0.2541
     18 N         -10.3992    1.6783   54.9823 N.am    1  UNL        -0.2833
     19 C          -8.9294    1.7386   55.2099 C.3     1  UNL         0.0284
     20 C          -8.1871    2.8303   54.4012 C.3     1  UNL         0.0142
     21 N          -8.5968    2.8618   52.9864 N.4     1  UNL        -0.2979
     22 C         -10.0480    3.1199   52.9048 C.3     1  UNL         0.0142
     23 C         -10.8763    2.0292   53.6221 C.3     1  UNL         0.0284
     24 C          -8.1041    1.6967   52.2128 C.3     1  UNL         0.0223
     25 C          -7.1686    2.0888   51.0514 C.3     1  UNL         0.0661
     26 O          -5.9518    2.5976   51.6255 O.3     1  UNL        -0.3432
     27 C          -4.6959    2.3341   51.1134 C.ar    1  UNL         0.0937
     28 C          -4.4280    1.1818   50.3437 C.ar    1  UNL        -0.0288
     29 C          -3.1362    0.9519   49.8416 C.ar    1  UNL        -0.0408
     30 C          -2.1062    1.8688   50.1040 C.ar    1  UNL         0.0422
     31 C          -2.3647    3.0174   50.8683 C.ar    1  UNL        -0.0221
     32 C          -3.6555    3.2500   51.3716 C.ar    1  UNL         0.0723
     33 CL         -3.9452    4.6944   52.3233 Cl      1  UNL        -0.0814
     34 CL         -0.4975    1.5795   49.4768 Cl      1  UNL        -0.0843
     35 C         -11.2760   -3.2029   56.7488 C.3     1  UNL        -0.0394
     36 H          -8.3152   -4.3139   60.2049 H       1  UNL         0.0623
     37 H          -9.6301   -4.8251   58.1696 H       1  UNL         0.0626
     38 H          -9.8042   -0.2829   60.1790 H       1  UNL         0.0627
     39 H          -8.4082   -2.0381   61.2092 H       1  UNL         0.0623
     40 H         -12.1898   -0.9267   57.3837 H       1  UNL         0.0625
     41 H         -14.2033    0.6666   61.5779 H       1  UNL         0.0627
     42 H         -13.4584    3.0509   61.4559 H       1  UNL         0.0639
     43 H         -11.7923    3.7116   59.6899 H       1  UNL         0.0840
     44 H         -13.7746   -1.7403   58.9884 H       1  UNL         0.0280
     45 H         -14.2339   -1.5404   60.6833 H       1  UNL         0.0280
     46 H         -12.5959   -2.0696   60.2758 H       1  UNL         0.0280
     47 H          -9.6451    0.3991   56.9781 H       1  UNL         0.1521
     48 H          -8.5073    0.7583   54.9543 H       1  UNL         0.0484
     49 H          -8.7246    1.9224   56.2717 H       1  UNL         0.0484
     50 H          -7.1039    2.6731   54.4823 H       1  UNL         0.0447
     51 H          -8.4080    3.8043   54.8570 H       1  UNL         0.0447
     52 H         -10.3776    3.2071   51.8629 H       1  UNL         0.0447
     53 H         -10.2636    4.0825   53.3865 H       1  UNL         0.0447
     54 H         -10.8661    1.1158   53.0141 H       1  UNL         0.0484
     55 H         -11.9170    2.3732   53.6800 H       1  UNL         0.0484
     56 H          -8.9451    1.1190   51.8091 H       1  UNL         0.0455
     57 H          -7.5439    1.0330   52.8841 H       1  UNL         0.0455
     58 H          -7.6513    2.8589   50.4362 H       1  UNL         0.0586
     59 H          -6.9511    1.2126   50.4287 H       1  UNL         0.0586
     60 H          -5.2091    0.4601   50.1281 H       1  UNL         0.0652
     61 H          -2.9351    0.0634   49.2497 H       1  UNL         0.0639
     62 H          -1.5669    3.7263   51.0708 H       1  UNL         0.0655
     63 H         -11.1995   -4.2726   56.5175 H       1  UNL         0.0280
     64 H         -10.9175   -2.6521   55.8703 H       1  UNL         0.0280
     65 H         -12.3406   -2.9763   56.8848 H       1  UNL         0.0280
@<TRIPOS>BOND
     1     1     2   ar
     2     1     6   ar
     3     1    36    1
     4     2     3   ar
     5     2    37    1
     6     3     4   ar
     7     3    35    1
     8     4     5   ar
     9     4     7    1
    10     5     6   ar
    11     5    38    1
    12     6    39    1
    13     7     8    1
    14     7    15    1
    15     7    40    1
    16     8     9   ar
    17     8    13   ar
    18     9    10   ar
    19     9    14    1
    20    10    11   ar
    21    10    41    1
    22    11    12   ar
    23    11    42    1
    24    12    13   ar
    25    12    43    1
    26    14    44    1
    27    14    45    1
    28    14    46    1
    29    15    16   am
    30    15    47    1
    31    16    17    2
    32    16    18   am
    33    18    19    1
    34    18    23    1
    35    19    20    1
    36    19    48    1
    37    19    49    1
    38    20    21    1
    39    20    50    1
    40    20    51    1
    41    21    22    1
    42    21    24    1
    43    22    23    1
    44    22    52    1
    45    22    53    1
    46    23    54    1
    47    23    55    1
    48    24    25    1
    49    24    56    1
    50    24    57    1
    51    25    26    1
    52    25    58    1
    53    25    59    1
    54    26    27    1
    55    27    28   ar
    56    27    32   ar
    57    28    29   ar
    58    28    60    1
    59    29    30   ar
    60    29    61    1
    61    30    31   ar
    62    30    34    1
    63    31    32   ar
    64    31    62    1
    65    32    33    1
    66    35    63    1
    67    35    64    1
    68    35    65    1
@<TRIPOS>SUBSTRUCTURE
     1 UNL         1 TEMP              0 ****  ****    0 ROOT


##########                                Name:    ZINC000892249927
##########                DOCK_Rotatable_Bonds:                   8
##########                         Heavy_Atoms:                  27
##########                    Molecular_Weight:             364.487
##########                DOCK_Rotatable_Bonds:                   8
##########                       Formal_Charge:          -0.0300015
##########                     HBond_Acceptors:                   4
##########                        HBond_Donors:                   1
##########                         Heavy_Atoms:                  27
##########                          Grid_Score:          -37.683449
##########                     Grid_vdw_energy:          -37.422020
##########                      Grid_es_energy:           -0.261428
##########           Internal_energy_repulsive:           14.277386

@<TRIPOS>MOLECULE
ZINC000892249927
 55 58 1 0 0
SMALL
USER_CHARGES


@<TRIPOS>ATOM
      1 O1         -3.9933    2.8174   48.5287 O.2     1  ZINC000892249927   -0.5300
      2 C2         -3.6787    2.2991   49.5791 C.2     1  ZINC000892249927    0.5100
      3 C3         -2.3284    1.6454   49.7221 C.3     1  ZINC000892249927   -0.1400
      4 C4         -1.5263    2.3643   50.8088 C.3     1  ZINC000892249927   -0.1000
      5 C5         -0.0857    1.8489   50.8045 C.3     1  ZINC000892249927   -0.0800
      6 C6          0.6108    2.3151   49.5519 C.ar    1  ZINC000892249927   -0.0900
      7 C7          1.1703    1.3923   48.6880 C.ar    1  ZINC000892249927   -0.1100
      8 C8          1.8091    1.8200   47.5391 C.ar    1  ZINC000892249927   -0.1100
      9 C9          1.8880    3.1702   47.2539 C.ar    1  ZINC000892249927   -0.0500
     10 C10         2.5849    3.6364   46.0016 C.3     1  ZINC000892249927   -0.1200
     11 C11         1.9202    4.7562   45.1985 C.3     1  ZINC000892249927   -0.1800
     12 C12         3.1854    5.0435   46.0096 C.3     1  ZINC000892249927   -0.1700
     13 C13         1.3272    4.0929   48.1171 C.ar    1  ZINC000892249927   -0.1200
     14 C14         0.6850    3.6651   49.2640 C.ar    1  ZINC000892249927   -0.1100
     15 N15        -4.5345    2.3125   50.6202 N.am    1  ZINC000892249927   -0.7300
     16 C16        -5.8471    2.9479   50.4812 C.3     1  ZINC000892249927    0.1400
     17 H17        -5.9144    3.4371   49.5094 H       1  ZINC000892249927    0.1000
     18 C18        -6.0341    3.9863   51.5916 C.3     1  ZINC000892249927   -0.1700
     19 C19        -6.0146    3.2791   52.9493 C.3     1  ZINC000892249927    0.0600
     20 O20        -7.0399    2.2842   52.9815 O.3     1  ZINC000892249927   -0.3700
     21 C21        -6.8906    1.2605   51.9956 C.3     1  ZINC000892249927    0.1400
     22 H22        -5.9316    0.7609   52.1327 H       1  ZINC000892249927    0.0700
     23 C23        -8.0054    0.2568   52.1406 C.ar    1  ZINC000892249927   -0.1400
     24 C24        -9.2740    0.6668   52.5201 C.ar    1  ZINC000892249927   -0.0700
     25 C25       -10.2691   -0.2915   52.6403 C.ar    1  ZINC000892249927   -0.1700
     26 C26        -9.9651   -1.6141   52.3796 C.ar    1  ZINC000892249927    0.1000
     27 N27        -8.7464   -1.9681   52.0205 N.ar    1  ZINC000892249927   -0.4900
     28 C28        -7.7773   -1.0835   51.8911 C.ar    1  ZINC000892249927    0.1300
     29 C29        -6.9452    1.8862   50.5974 C.3     1  ZINC000892249927   -0.1500
     30 H30        -2.4586    0.5991   49.9989 H       1  ZINC000892249927    0.0900
     31 H31        -1.7928    1.7067   48.7748 H       1  ZINC000892249927    0.0900
     32 H32        -1.5292    3.4366   50.6131 H       1  ZINC000892249927    0.0700
     33 H33        -1.9783    2.1713   51.7817 H       1  ZINC000892249927    0.0700
     34 H34         0.4407    2.2342   51.6776 H       1  ZINC000892249927    0.0700
     35 H35        -0.0896    0.7593   50.8338 H       1  ZINC000892249927    0.0700
     36 H36         1.1087    0.3374   48.9109 H       1  ZINC000892249927    0.1200
     37 H37         2.2470    1.0990   46.8645 H       1  ZINC000892249927    0.1200
     38 H38         3.1172    2.8650   45.4450 H       1  ZINC000892249927    0.1100
     39 H39         2.0151    4.7218   44.1132 H       1  ZINC000892249927    0.1000
     40 H40         0.9789    5.1558   45.5759 H       1  ZINC000892249927    0.1000
     41 H41         3.0764    5.6322   46.9204 H       1  ZINC000892249927    0.1000
     42 H42         4.1126    5.1981   45.4577 H       1  ZINC000892249927    0.1000
     43 H43         1.3885    5.1478   47.8941 H       1  ZINC000892249927    0.1200
     44 H44         0.2469    4.3860   49.9384 H       1  ZINC000892249927    0.1200
     45 H45        -4.2813    1.9013   51.4615 H       1  ZINC000892249927    0.4000
     46 H46        -5.2246    4.7150   51.5489 H       1  ZINC000892249927    0.0800
     47 H47        -6.9896    4.4936   51.4589 H       1  ZINC000892249927    0.0800
     48 H48        -5.0441    2.8060   53.0988 H       1  ZINC000892249927    0.0500
     49 H49        -6.1899    4.0075   53.7410 H       1  ZINC000892249927    0.1000
     50 H50        -9.4824    1.7079   52.7180 H       1  ZINC000892249927    0.1300
     51 H51       -11.2688   -0.0079   52.9344 H       1  ZINC000892249927    0.1400
     52 H52       -10.7343   -2.3666   52.4713 H       1  ZINC000892249927    0.1600
     53 H53        -6.7916   -1.4111   51.5951 H       1  ZINC000892249927    0.1600
     54 H54        -7.9192    2.3510   50.4441 H       1  ZINC000892249927    0.0900
     55 H55        -6.7874    1.1127   49.8458 H       1  ZINC000892249927    0.0800
@<TRIPOS>BOND
     1     1     2    2
     2     2     3    1
     3     2    15   am
     4     3     4    1
     5     3    30    1
     6     3    31    1
     7     4     5    1
     8     4    32    1
     9     4    33    1
    10     5     6    1
    11     5    34    1
    12     5    35    1
    13     6    14   ar
    14     6     7   ar
    15     7     8   ar
    16     7    36    1
    17     8     9   ar
    18     8    37    1
    19     9    10    1
    20     9    13   ar
    21    10    12    1
    22    10    11    1
    23    10    38    1
    24    11    12    1
    25    11    39    1
    26    11    40    1
    27    12    41    1
    28    12    42    1
    29    13    14   ar
    30    13    43    1
    31    14    44    1
    32    15    16    1
    33    15    45    1
    34    16    17    1
    35    16    29    1
    36    16    18    1
    37    18    19    1
    38    18    46    1
    39    18    47    1
    40    19    20    1
    41    19    48    1
    42    19    49    1
    43    20    21    1
    44    21    22    1
    45    21    23    1
    46    21    29    1
    47    23    28   ar
    48    23    24   ar
    49    24    25   ar
    50    24    50    1
    51    25    26   ar
    52    25    51    1
    53    26    27   ar
    54    26    52    1
    55    27    28   ar
    56    28    53    1
    57    29    54    1
    58    29    55    1
@<TRIPOS>SUBSTRUCTURE
     1 ZINC000892249927        1 TEMP              0 ****  ****    0 ROOT


##########                                Name:    ZINC000508782983
##########                DOCK_Rotatable_Bonds:                   9
##########                         Heavy_Atoms:                  27
##########                    Molecular_Weight:             373.458
##########                DOCK_Rotatable_Bonds:                   9
##########                       Formal_Charge:          -0.0200006
##########                     HBond_Acceptors:                   9
##########                        HBond_Donors:                   2
##########                         Heavy_Atoms:                  27
##########                          Grid_Score:          -37.646076
##########                     Grid_vdw_energy:          -36.362694
##########                      Grid_es_energy:           -1.283381
##########           Internal_energy_repulsive:           16.241985

@<TRIPOS>MOLECULE
ZINC000508782983
 54 56 1 0 0
SMALL
USER_CHARGES


@<TRIPOS>ATOM
      1 C1        -16.2406   -0.5099   52.7367 C.3     1  ZINC000508782983   -0.1500
      2 C2        -14.7486   -0.7801   52.5324 C.3     1  ZINC000508782983   -0.1100
      3 C3        -13.9342    0.3468   53.1710 C.3     1  ZINC000508782983   -0.1500
      4 C4        -14.3771   -2.1120   53.1871 C.3     1  ZINC000508782983    0.1000
      5 N5        -12.9482   -2.3701   52.9926 N.pl3   1  ZINC000508782983   -0.4400
      6 C6        -12.1799   -1.9377   51.9455 C.2     1  ZINC000508782983   -0.0400
      7 C7        -10.9324   -2.3963   52.1621 C.2     1  ZINC000508782983   -0.0300
      8 N8        -10.9387   -3.0898   53.3102 N.2     1  ZINC000508782983   -0.4700
      9 C9        -12.1417   -3.0741   53.8157 C.2     1  ZINC000508782983    0.1700
     10 C10       -12.5632   -3.7395   55.1005 C.3     1  ZINC000508782983    0.2100
     11 N11       -11.4195   -3.8067   56.0137 N.am    1  ZINC000508782983   -0.6900
     12 C12       -11.6223   -3.9512   57.3382 C.2     1  ZINC000508782983    0.5100
     13 O13       -12.7522   -4.0242   57.7746 O.2     1  ZINC000508782983   -0.5100
     14 C14       -10.4555   -4.0215   58.2696 C.2     1  ZINC000508782983    0.5100
     15 O15        -9.8959   -5.0809   58.4621 O.2     1  ZINC000508782983   -0.5200
     16 N16       -10.0249   -2.9083   58.8955 N.am    1  ZINC000508782983   -0.5800
     17 C17       -10.6926   -1.6155   58.6811 C.3     1  ZINC000508782983    0.0800
     18 C18       -11.0247   -1.0066   60.0476 C.3     1  ZINC000508782983    0.0400
     19 N19        -9.8045   -0.9477   60.8635 N.3     1  ZINC000508782983   -0.5400
     20 C20       -10.0424   -0.2148   62.1142 C.3     1  ZINC000508782983    0.1400
     21 C21        -9.6645    1.2321   61.9281 C.2     1  ZINC000508782983    0.2100
     22 N22        -9.1359    2.0034   62.8385 N.2     1  ZINC000508782983   -0.4900
     23 C23        -8.9334    3.2240   62.3209 C.2     1  ZINC000508782983   -0.0300
     24 C24        -9.3524    3.2087   61.0412 C.2     1  ZINC000508782983   -0.0500
     25 N25        -9.8114    1.9438   60.7898 N.pl3   1  ZINC000508782983   -0.5600
     26 C26        -9.2786   -2.2926   61.1332 C.3     1  ZINC000508782983    0.0400
     27 C27        -8.8787   -2.9554   59.8160 C.3     1  ZINC000508782983    0.1100
     28 H28       -16.5052    0.4391   52.2702 H       1  ZINC000508782983    0.0700
     29 H29       -16.8209   -1.3127   52.2817 H       1  ZINC000508782983    0.0600
     30 H30       -16.4587   -0.4636   53.8036 H       1  ZINC000508782983    0.0600
     31 H31       -14.5304   -0.8263   51.4654 H       1  ZINC000508782983    0.0800
     32 H32       -14.2091    0.4436   54.2213 H       1  ZINC000508782983    0.0600
     33 H33       -12.8716    0.1163   53.0933 H       1  ZINC000508782983    0.0600
     34 H34       -14.1415    1.2834   52.6533 H       1  ZINC000508782983    0.0600
     35 H35       -14.5961   -2.0660   54.2539 H       1  ZINC000508782983    0.1000
     36 H36       -14.9566   -2.9149   52.7315 H       1  ZINC000508782983    0.0900
     37 H37       -12.5107   -1.3433   51.1066 H       1  ZINC000508782983    0.1800
     38 H38       -10.0767   -2.2340   51.5234 H       1  ZINC000508782983    0.1700
     39 H39       -13.3638   -3.1623   55.5630 H       1  ZINC000508782983    0.0900
     40 H40       -12.9181   -4.7480   54.8881 H       1  ZINC000508782983    0.1100
     41 H41       -10.5163   -3.7471   55.6650 H       1  ZINC000508782983    0.4200
     42 H42       -10.0283   -0.9466   58.1339 H       1  ZINC000508782983    0.0800
     43 H43       -11.6115   -1.7674   58.1149 H       1  ZINC000508782983    0.1400
     44 H44       -11.4197    0.0001   59.9109 H       1  ZINC000508782983    0.0900
     45 H45       -11.7688   -1.6246   60.5500 H       1  ZINC000508782983    0.0400
     46 H46       -11.0970   -0.2835   62.3806 H       1  ZINC000508782983    0.0900
     47 H47        -9.4375   -0.6488   62.9104 H       1  ZINC000508782983    0.0700
     48 H48        -8.5087    4.0708   62.8396 H       1  ZINC000508782983    0.1700
     49 H49        -9.3272    4.0345   60.3455 H       1  ZINC000508782983    0.1800
     50 H50       -10.1786    1.6206   59.9523 H       1  ZINC000508782983    0.4200
     51 H51        -8.4072   -2.2185   61.7839 H       1  ZINC000508782983    0.1100
     52 H52       -10.0470   -2.8927   61.6205 H       1  ZINC000508782983    0.0400
     53 H53        -8.5961   -3.9921   59.9987 H       1  ZINC000508782983    0.1000
     54 H54        -8.0401   -2.4167   59.3747 H       1  ZINC000508782983    0.0800
@<TRIPOS>BOND
     1     1     2    1
     2     1    28    1
     3     1    29    1
     4     1    30    1
     5     2     3    1
     6     2     4    1
     7     2    31    1
     8     3    32    1
     9     3    33    1
    10     3    34    1
    11     4     5    1
    12     4    35    1
    13     4    36    1
    14     5     9    1
    15     5     6    1
    16     6     7    2
    17     6    37    1
    18     7     8    1
    19     7    38    1
    20     8     9    2
    21     9    10    1
    22    10    11    1
    23    10    39    1
    24    10    40    1
    25    11    12   am
    26    11    41    1
    27    12    13    2
    28    12    14    1
    29    14    15    2
    30    14    16   am
    31    16    27    1
    32    16    17    1
    33    17    18    1
    34    17    42    1
    35    17    43    1
    36    18    19    1
    37    18    44    1
    38    18    45    1
    39    19    20    1
    40    19    26    1
    41    20    21    1
    42    20    46    1
    43    20    47    1
    44    21    25    1
    45    21    22    2
    46    22    23    1
    47    23    24    2
    48    23    48    1
    49    24    25    1
    50    24    49    1
    51    25    50    1
    52    26    27    1
    53    26    51    1
    54    26    52    1
    55    27    53    1
    56    27    54    1
@<TRIPOS>SUBSTRUCTURE
     1 ZINC000508782983        1 TEMP              0 ****  ****    0 ROOT


##########                                Name:    ZINC001289445798
##########                DOCK_Rotatable_Bonds:                  10
##########                         Heavy_Atoms:                  25
##########                    Molecular_Weight:             352.434
##########                DOCK_Rotatable_Bonds:                  10
##########                       Formal_Charge:          0.00999932
##########                     HBond_Acceptors:                   8
##########                        HBond_Donors:                   2
##########                         Heavy_Atoms:                  25
##########                          Grid_Score:          -37.645775
##########                     Grid_vdw_energy:          -29.928329
##########                      Grid_es_energy:           -7.717444
##########           Internal_energy_repulsive:           16.371582

@<TRIPOS>MOLECULE
ZINC001289445798
 53 54 1 0 0
SMALL
USER_CHARGES


@<TRIPOS>ATOM
      1 C1         -6.0947    4.5899   55.4585 C.3     1  ZINC001289445798   -0.1500
      2 C2         -5.8019    3.4881   54.4383 C.3     1  ZINC001289445798    0.0600
      3 O3         -6.3547    3.8524   53.1718 O.3     1  ZINC001289445798   -0.3700
      4 C4         -6.1710    2.8679   52.1526 C.3     1  ZINC001289445798    0.1100
      5 H5         -5.5421    2.0633   52.5337 H       1  ZINC001289445798    0.0700
      6 C6         -5.4971    3.5104   50.9385 C.3     1  ZINC001289445798   -0.1400
      7 C7         -4.6969    2.4695   50.1987 C.2     1  ZINC001289445798    0.5400
      8 O8         -5.2580    1.6764   49.4726 O.2     1  ZINC001289445798   -0.5200
      9 N9         -3.3580    2.4198   50.3440 N.am    1  ZINC001289445798   -0.6200
     10 C10        -2.4586    1.4656   49.6790 C.3     1  ZINC001289445798    0.1000
     11 C11        -1.0205    1.8052   50.1235 C.3     1  ZINC001289445798    0.1400
     12 H12        -0.7154    1.1736   50.9579 H       1  ZINC001289445798    0.1200
     13 N13        -0.0859    1.6686   49.0037 N.am    1  ZINC001289445798   -0.7200
     14 C14         1.2310    1.5069   49.2410 C.2     1  ZINC001289445798    0.6000
     15 O15         1.6436    1.4760   50.3847 O.2     1  ZINC001289445798   -0.5100
     16 C16         2.1697    1.3680   48.1161 C.2     1  ZINC001289445798   -0.0500
     17 C17         3.5468    1.4982   48.1624 C.2     1  ZINC001289445798   -0.1400
     18 C18         3.9834    1.2788   46.8539 C.2     1  ZINC001289445798    0.0000
     19 N19         2.9306    1.0404   46.1142 N.2     1  ZINC001289445798   -0.2700
     20 N20         1.8570    1.0786   46.8182 N.pl3   1  ZINC001289445798   -0.3800
     21 C21        -1.1354    3.2867   50.5700 C.3     1  ZINC001289445798    0.0700
     22 H22        -1.0731    3.9587   49.7141 H       1  ZINC001289445798    0.0900
     23 O23        -0.1389    3.6073   51.5429 O.3     1  ZINC001289445798   -0.3700
     24 C24         0.6522    4.7497   51.2097 C.3     1  ZINC001289445798    0.0300
     25 C25        -2.5518    3.3175   51.1911 C.3     1  ZINC001289445798    0.0800
     26 C26        -7.5308    2.3007   51.7403 C.3     1  ZINC001289445798   -0.1100
     27 C27        -7.9830    1.2616   52.7683 C.3     1  ZINC001289445798   -0.1500
     28 C28        -8.5572    3.4334   51.6746 C.3     1  ZINC001289445798   -0.1500
     29 H29        -7.1728    4.7177   55.5560 H       1  ZINC001289445798    0.0600
     30 H30        -5.6730    4.3121   56.4245 H       1  ZINC001289445798    0.0700
     31 H31        -5.6469    5.5250   55.1221 H       1  ZINC001289445798    0.0600
     32 H32        -4.7238    3.3602   54.3408 H       1  ZINC001289445798    0.0500
     33 H33        -6.2497    2.5530   54.7748 H       1  ZINC001289445798    0.0500
     34 H34        -6.2584    3.9221   50.2759 H       1  ZINC001289445798    0.1100
     35 H35        -4.8344    4.3093   51.2713 H       1  ZINC001289445798    0.1000
     36 H36        -2.7094    0.4484   49.9800 H       1  ZINC001289445798    0.0800
     37 H37        -2.5458    1.5663   48.5971 H       1  ZINC001289445798    0.0800
     38 H38        -0.4147    1.6946   48.0915 H       1  ZINC001289445798    0.4000
     39 H39         4.1547    1.7220   49.0267 H       1  ZINC001289445798    0.1700
     40 H40         5.0079    1.3024   46.5131 H       1  ZINC001289445798    0.1900
     41 H41         0.9604    0.9312   46.4788 H       1  ZINC001289445798    0.4400
     42 H42         1.3845    4.9267   51.9975 H       1  ZINC001289445798    0.0900
     43 H43         1.1691    4.5712   50.2668 H       1  ZINC001289445798    0.0400
     44 H44         0.0068    5.6224   51.1109 H       1  ZINC001289445798    0.0500
     45 H45        -2.9544    4.3301   51.1674 H       1  ZINC001289445798    0.0900
     46 H46        -2.5255    2.9427   52.2143 H       1  ZINC001289445798    0.0900
     47 H47        -7.4462    1.8298   50.7608 H       1  ZINC001289445798    0.0800
     48 H48        -8.0677    1.7325   53.7477 H       1  ZINC001289445798    0.0600
     49 H49        -8.9518    0.8576   52.4745 H       1  ZINC001289445798    0.0600
     50 H50        -7.2518    0.4546   52.8150 H       1  ZINC001289445798    0.0600
     51 H51        -8.2867    4.1229   50.8749 H       1  ZINC001289445798    0.0600
     52 H52        -9.5452    3.0176   51.4771 H       1  ZINC001289445798    0.0600
     53 H53        -8.5710    3.9669   52.6250 H       1  ZINC001289445798    0.0500
@<TRIPOS>BOND
     1     1     2    1
     2     1    29    1
     3     1    30    1
     4     1    31    1
     5     2     3    1
     6     2    32    1
     7     2    33    1
     8     3     4    1
     9     4     5    1
    10     4     6    1
    11     4    26    1
    12     6     7    1
    13     6    34    1
    14     6    35    1
    15     7     8    2
    16     7     9   am
    17     9    25    1
    18     9    10    1
    19    10    11    1
    20    10    36    1
    21    10    37    1
    22    11    12    1
    23    11    13    1
    24    11    21    1
    25    13    14   am
    26    13    38    1
    27    14    15    2
    28    14    16    1
    29    16    20    1
    30    16    17    2
    31    17    18    1
    32    17    39    1
    33    18    19    2
    34    18    40    1
    35    19    20    1
    36    20    41    1
    37    21    22    1
    38    21    23    1
    39    21    25    1
    40    23    24    1
    41    24    42    1
    42    24    43    1
    43    24    44    1
    44    25    45    1
    45    25    46    1
    46    26    27    1
    47    26    28    1
    48    26    47    1
    49    27    48    1
    50    27    49    1
    51    27    50    1
    52    28    51    1
    53    28    52    1
    54    28    53    1
@<TRIPOS>SUBSTRUCTURE
     1 ZINC001289445798        1 TEMP              0 ****  ****    0 ROOT


##########                                Name:    ZINC001347442583
##########                DOCK_Rotatable_Bonds:                   9
##########                         Heavy_Atoms:                  27
##########                    Molecular_Weight:             370.492
##########                DOCK_Rotatable_Bonds:                   9
##########                       Formal_Charge:          -0.0400009
##########                     HBond_Acceptors:                   5
##########                        HBond_Donors:                   1
##########                         Heavy_Atoms:                  27
##########                          Grid_Score:          -37.640419
##########                     Grid_vdw_energy:          -35.715229
##########                      Grid_es_energy:           -1.925189
##########           Internal_energy_repulsive:           11.047406

@<TRIPOS>MOLECULE
ZINC001347442583
 57 60 1 0 0
SMALL
USER_CHARGES


@<TRIPOS>ATOM
      1 O1         -8.7267   -1.2627   51.9948 O.2     1  ZINC001347442583   -0.5400
      2 C2         -9.0405   -0.4236   52.8123 C.2     1  ZINC001347442583    0.5400
      3 C3         -8.0209    0.5750   53.2965 C.3     1  ZINC001347442583   -0.1400
      4 C4         -8.4364    1.9811   52.8590 C.3     1  ZINC001347442583   -0.1000
      5 C5         -7.2197    2.7218   52.3007 C.3     1  ZINC001347442583   -0.1100
      6 C6         -6.9748    2.2836   50.8553 C.3     1  ZINC001347442583   -0.0800
      7 C7         -5.5157    1.9555   50.6702 C.ar    1  ZINC001347442583   -0.0800
      8 C8         -4.5491    2.8752   51.0321 C.ar    1  ZINC001347442583   -0.1200
      9 C9         -3.2107    2.5742   50.8623 C.ar    1  ZINC001347442583   -0.1200
     10 C10        -2.8387    1.3534   50.3310 C.ar    1  ZINC001347442583   -0.1300
     11 C11        -3.8052    0.4334   49.9701 C.ar    1  ZINC001347442583   -0.1200
     12 C12        -5.1436    0.7327   50.1439 C.ar    1  ZINC001347442583   -0.1200
     13 N13       -10.3024   -0.3805   53.2837 N.am    1  ZINC001347442583   -0.6300
     14 C14       -11.4960   -1.2394   52.9758 C.3     1  ZINC001347442583    0.1200
     15 H15       -11.3349   -2.0335   52.2469 H       1  ZINC001347442583    0.1200
     16 C16       -12.5451   -0.1596   52.5731 C.3     1  ZINC001347442583   -0.1300
     17 C17       -12.1722    1.0534   53.4606 C.3     1  ZINC001347442583   -0.1300
     18 C18       -10.9468    0.5372   54.2835 C.3     1  ZINC001347442583    0.1200
     19 H19       -10.3027    1.3100   54.7029 H       1  ZINC001347442583    0.1200
     20 C20       -11.5446   -0.4705   55.3111 C.3     1  ZINC001347442583    0.1300
     21 H21       -12.4265   -0.0493   55.7936 H       1  ZINC001347442583    0.1100
     22 N22       -10.5409   -0.8451   56.3105 N.am    1  ZINC001347442583   -0.7200
     23 C23       -10.9272   -1.2155   57.5474 C.2     1  ZINC001347442583    0.5300
     24 O24       -12.1057   -1.2401   57.8328 O.2     1  ZINC001347442583   -0.5300
     25 C25        -9.8945   -1.5990   58.5759 C.3     1  ZINC001347442583   -0.1500
     26 H26        -8.8876   -1.4561   58.1840 H       1  ZINC001347442583    0.1100
     27 C27       -10.0962   -0.7937   59.8884 C.3     1  ZINC001347442583   -0.1400
     28 C28        -9.5102   -1.7790   60.9310 C.3     1  ZINC001347442583    0.0500
     29 O29        -9.8827   -3.0850   60.4634 O.3     1  ZINC001347442583   -0.3800
     30 C30       -10.1003   -3.0555   59.0444 C.3     1  ZINC001347442583    0.0700
     31 C31       -11.9014   -1.7106   54.4049 C.3     1  ZINC001347442583   -0.1400
     32 H32        -7.9617    0.5356   54.3842 H       1  ZINC001347442583    0.0900
     33 H33        -7.0466    0.3351   52.8706 H       1  ZINC001347442583    0.0900
     34 H34        -9.2037    1.9098   52.0881 H       1  ZINC001347442583    0.0700
     35 H35        -8.8320    2.5261   53.7160 H       1  ZINC001347442583    0.0700
     36 H36        -7.4038    3.7958   52.3286 H       1  ZINC001347442583    0.0600
     37 H37        -6.3431    2.4876   52.9047 H       1  ZINC001347442583    0.0600
     38 H38        -7.5763    1.4014   50.6363 H       1  ZINC001347442583    0.0700
     39 H39        -7.2542    3.0912   50.1786 H       1  ZINC001347442583    0.0700
     40 H40        -4.8396    3.8290   51.4471 H       1  ZINC001347442583    0.1200
     41 H41        -2.4556    3.2930   51.1443 H       1  ZINC001347442583    0.1200
     42 H42        -1.7930    1.1185   50.1978 H       1  ZINC001347442583    0.1200
     43 H43        -3.5147   -0.5204   49.5548 H       1  ZINC001347442583    0.1200
     44 H44        -5.8988    0.0139   49.8619 H       1  ZINC001347442583    0.1200
     45 H45       -12.4497    0.0934   51.5172 H       1  ZINC001347442583    0.0700
     46 H46       -13.5550   -0.5031   52.7971 H       1  ZINC001347442583    0.0800
     47 H47       -11.8919    1.9080   52.8447 H       1  ZINC001347442583    0.0800
     48 H48       -12.9971    1.3114   54.1246 H       1  ZINC001347442583    0.0800
     49 H49        -9.5984   -0.8265   56.0817 H       1  ZINC001347442583    0.4000
     50 H50        -9.5315    0.1384   59.8681 H       1  ZINC001347442583    0.0900
     51 H51       -11.1535   -0.6064   60.0760 H       1  ZINC001347442583    0.0900
     52 H52        -8.4247   -1.6866   60.9704 H       1  ZINC001347442583    0.0700
     53 H53        -9.9426   -1.5913   61.9137 H       1  ZINC001347442583    0.0900
     54 H54       -11.1185   -3.3730   58.8198 H       1  ZINC001347442583    0.0700
     55 H55        -9.3881   -3.7141   58.5474 H       1  ZINC001347442583    0.0800
     56 H56       -12.9726   -1.9105   54.4322 H       1  ZINC001347442583    0.0900
     57 H57       -11.3376   -2.5895   54.7175 H       1  ZINC001347442583    0.0800
@<TRIPOS>BOND
     1     1     2    2
     2     2     3    1
     3     2    13   am
     4     3     4    1
     5     3    32    1
     6     3    33    1
     7     4     5    1
     8     4    34    1
     9     4    35    1
    10     5     6    1
    11     5    36    1
    12     5    37    1
    13     6     7    1
    14     6    38    1
    15     6    39    1
    16     7    12   ar
    17     7     8   ar
    18     8     9   ar
    19     8    40    1
    20     9    10   ar
    21     9    41    1
    22    10    11   ar
    23    10    42    1
    24    11    12   ar
    25    11    43    1
    26    12    44    1
    27    13    18    1
    28    13    14    1
    29    14    15    1
    30    14    31    1
    31    14    16    1
    32    16    17    1
    33    16    45    1
    34    16    46    1
    35    17    18    1
    36    17    47    1
    37    17    48    1
    38    18    19    1
    39    18    20    1
    40    20    21    1
    41    20    22    1
    42    20    31    1
    43    22    23   am
    44    22    49    1
    45    23    24    2
    46    23    25    1
    47    25    26    1
    48    25    30    1
    49    25    27    1
    50    27    28    1
    51    27    50    1
    52    27    51    1
    53    28    29    1
    54    28    52    1
    55    28    53    1
    56    29    30    1
    57    30    54    1
    58    30    55    1
    59    31    56    1
    60    31    57    1
@<TRIPOS>SUBSTRUCTURE
     1 ZINC001347442583        1 TEMP              0 ****  ****    0 ROOT


##########                                Name:    ZINC001490207225
##########                DOCK_Rotatable_Bonds:                   7
##########                         Heavy_Atoms:                  24
##########                    Molecular_Weight:             334.378
##########                DOCK_Rotatable_Bonds:                   7
##########                       Formal_Charge:           -0.010001
##########                     HBond_Acceptors:                   9
##########                        HBond_Donors:                   3
##########                         Heavy_Atoms:                  24
##########                          Grid_Score:          -37.633392
##########                     Grid_vdw_energy:          -35.277840
##########                      Grid_es_energy:           -2.355551
##########           Internal_energy_repulsive:            7.020111

@<TRIPOS>MOLECULE
ZINC001490207225
 46 48 1 0 0
SMALL
USER_CHARGES


@<TRIPOS>ATOM
      1 C1        -13.2228   -2.8215   53.3198 C.3     1  ZINC001490207225    0.0900
      2 N2        -13.0127   -3.4063   54.6465 N.pl3   1  ZINC001490207225   -0.3600
      3 C3        -11.8408   -3.4717   55.2983 C.2     1  ZINC001490207225    0.1300
      4 C4        -12.0752   -4.0931   56.5085 C.2     1  ZINC001490207225   -0.3000
      5 C5        -11.0753   -4.3796   57.5533 C.2     1  ZINC001490207225    0.6200
      6 O6        -10.5254   -5.4637   57.5876 O.2     1  ZINC001490207225   -0.5400
      7 N7        -10.7708   -3.4402   58.4705 N.am    1  ZINC001490207225   -0.6200
      8 C8         -9.7970   -3.5646   59.5674 C.3     1  ZINC001490207225    0.1100
      9 C9        -10.3272   -2.6953   60.7195 C.3     1  ZINC001490207225   -0.1100
     10 H10       -10.7794   -3.2945   61.5100 H       1  ZINC001490207225    0.1000
     11 C11        -9.1824   -1.8060   61.2486 C.3     1  ZINC001490207225    0.1000
     12 N12        -9.7961   -0.4699   61.4276 N.am    1  ZINC001490207225   -0.6200
     13 C13        -9.5910    0.4064   62.4308 C.2     1  ZINC001490207225    0.5300
     14 O14       -10.1747    1.4696   62.4361 O.2     1  ZINC001490207225   -0.5300
     15 C15        -8.6365    0.0654   63.5459 C.3     1  ZINC001490207225    0.1200
     16 N16        -9.2407    0.4219   64.8321 N.am    1  ZINC001490207225   -0.7400
     17 C17        -8.7573   -0.1075   65.9734 C.2     1  ZINC001490207225    0.7100
     18 N18        -9.3121    0.2217   67.1568 N.am    1  ZINC001490207225   -0.8600
     19 O19        -7.8208   -0.8818   65.9356 O.2     1  ZINC001490207225   -0.5900
     20 C20       -10.6862   -0.3156   60.2539 C.3     1  ZINC001490207225    0.1100
     21 C21       -11.3452   -1.7258   60.0645 C.3     1  ZINC001490207225   -0.0800
     22 C22       -12.7402   -1.7973   60.6888 C.3     1  ZINC001490207225   -0.1300
     23 C23       -11.3423   -2.0871   58.5671 C.3     1  ZINC001490207225    0.1000
     24 C24       -13.4528   -4.4026   56.5586 C.2     1  ZINC001490207225    0.0700
     25 N25       -14.0007   -3.9855   55.4505 N.2     1  ZINC001490207225   -0.2900
     26 H26       -13.4595   -1.7625   53.4229 H       1  ZINC001490207225    0.0800
     27 H27       -12.3165   -2.9349   52.7250 H       1  ZINC001490207225    0.0900
     28 H28       -14.0488   -3.3319   52.8245 H       1  ZINC001490207225    0.1000
     29 H29       -10.8894   -3.1058   54.9413 H       1  ZINC001490207225    0.1900
     30 H30        -9.7237   -4.6043   59.8863 H       1  ZINC001490207225    0.0900
     31 H31        -8.8211   -3.2023   59.2440 H       1  ZINC001490207225    0.0800
     32 H32        -8.8157   -2.1863   62.2020 H       1  ZINC001490207225    0.0900
     33 H33        -8.3721   -1.7574   60.5211 H       1  ZINC001490207225    0.0900
     34 H34        -8.4239   -1.0035   63.5281 H       1  ZINC001490207225    0.1000
     35 H35        -7.7090    0.6226   63.4134 H       1  ZINC001490207225    0.1000
     36 H36        -9.9887    1.0387   64.8622 H       1  ZINC001490207225    0.4100
     37 H37        -8.9635   -0.1584   67.9783 H       1  ZINC001490207225    0.4000
     38 H38       -10.0601    0.8385   67.1869 H       1  ZINC001490207225    0.4200
     39 H39       -11.4552    0.4300   60.4560 H       1  ZINC001490207225    0.0900
     40 H40       -10.1080   -0.0368   59.3729 H       1  ZINC001490207225    0.0800
     41 H41       -13.3912   -1.0672   60.2080 H       1  ZINC001490207225    0.0700
     42 H42       -13.1501   -2.7975   60.5489 H       1  ZINC001490207225    0.0600
     43 H43       -12.6730   -1.5780   61.7544 H       1  ZINC001490207225    0.0600
     44 H44       -10.7113   -1.3902   58.0154 H       1  ZINC001490207225    0.0800
     45 H45       -12.3589   -2.0631   58.1746 H       1  ZINC001490207225    0.0900
     46 H46       -13.9636   -4.8944   57.3732 H       1  ZINC001490207225    0.2000
@<TRIPOS>BOND
     1     1     2    1
     2     1    26    1
     3     1    27    1
     4     1    28    1
     5     2    25    1
     6     2     3    1
     7     3     4    2
     8     3    29    1
     9     4     5    1
    10     4    24    1
    11     5     6    2
    12     5     7   am
    13     7    23    1
    14     7     8    1
    15     8     9    1
    16     8    30    1
    17     8    31    1
    18     9    10    1
    19     9    21    1
    20     9    11    1
    21    11    12    1
    22    11    32    1
    23    11    33    1
    24    12    13   am
    25    12    20    1
    26    13    14    2
    27    13    15    1
    28    15    16    1
    29    15    34    1
    30    15    35    1
    31    16    17   am
    32    16    36    1
    33    17    18   am
    34    17    19    2
    35    18    37    1
    36    18    38    1
    37    20    21    1
    38    20    39    1
    39    20    40    1
    40    21    22    1
    41    21    23    1
    42    22    41    1
    43    22    42    1
    44    22    43    1
    45    23    44    1
    46    23    45    1
    47    24    25    2
    48    24    46    1
@<TRIPOS>SUBSTRUCTURE
     1 ZINC001490207225        1 TEMP              0 ****  ****    0 ROOT


##########                                Name:    ZINC000482187991
##########                DOCK_Rotatable_Bonds:                  11
##########                         Heavy_Atoms:                  29
##########                    Molecular_Weight:             407.414
##########                DOCK_Rotatable_Bonds:                  11
##########                       Formal_Charge:           0.0299996
##########                     HBond_Acceptors:                   8
##########                        HBond_Donors:                   1
##########                         Heavy_Atoms:                  29
##########                          Grid_Score:          -37.600716
##########                     Grid_vdw_energy:          -35.400578
##########                      Grid_es_energy:           -2.200137
##########           Internal_energy_repulsive:           17.292728

@<TRIPOS>MOLECULE
ZINC000482187991
 52 53 1 0 0
SMALL
USER_CHARGES


@<TRIPOS>ATOM
      1 C1        -12.1795   -4.0211   56.8621 C.3     1  ZINC000482187991    0.0200
      2 O2        -10.8628   -3.4677   56.8127 O.3     1  ZINC000482187991   -0.3000
      3 C3        -10.7130   -2.1905   57.2552 C.ar    1  ZINC000482187991    0.1400
      4 C4        -10.9200   -1.1325   56.3918 C.ar    1  ZINC000482187991   -0.1700
      5 C5        -10.7659    0.1820   56.8484 C.ar    1  ZINC000482187991   -0.1000
      6 C6        -10.9855    1.3096   55.9336 C.2     1  ZINC000482187991    0.4000
      7 O7        -12.0095    1.3751   55.2867 O.2     1  ZINC000482187991   -0.4500
      8 C8         -9.9388    2.3854   55.7986 C.3     1  ZINC000482187991   -0.1500
      9 C9         -8.6011    1.7501   55.4143 C.3     1  ZINC000482187991   -0.1300
     10 C10        -8.5715    1.5016   53.9282 C.2     1  ZINC000482187991    0.5200
     11 O11        -9.4227    0.8087   53.4122 O.2     1  ZINC000482187991   -0.5200
     12 N12        -7.5990    2.0491   53.1727 N.am    1  ZINC000482187991   -0.7200
     13 C13        -7.5692    1.8061   51.7282 C.3     1  ZINC000482187991    0.1500
     14 H14        -8.1789    0.9334   51.4940 H       1  ZINC000482187991    0.1300
     15 C15        -6.1488    1.5587   51.2898 C.ar    1  ZINC000482187991   -0.1100
     16 C16        -5.1431    2.4207   51.6854 C.ar    1  ZINC000482187991   -0.1000
     17 C17        -3.8403    2.1938   51.2832 C.ar    1  ZINC000482187991   -0.1200
     18 C18        -3.5429    1.1046   50.4855 C.ar    1  ZINC000482187991   -0.1100
     19 C19        -4.5484    0.2421   50.0905 C.ar    1  ZINC000482187991   -0.1200
     20 C20        -5.8506    0.4666   50.4963 C.ar    1  ZINC000482187991   -0.1000
     21 C21        -8.1242    3.0281   50.9938 C.3     1  ZINC000482187991    0.2500
     22 F22        -9.3778    3.3586   51.5198 F       1  ZINC000482187991   -0.1900
     23 F23        -7.2501    4.1079   51.1583 F       1  ZINC000482187991   -0.2000
     24 C24       -10.4023    0.4189   58.1797 C.ar    1  ZINC000482187991   -0.1900
     25 C25       -10.1969   -0.6442   59.0372 C.ar    1  ZINC000482187991    0.1400
     26 O26        -9.8442   -0.4151   60.3306 O.3     1  ZINC000482187991   -0.3000
     27 C27       -10.4786    0.6815   60.9915 C.3     1  ZINC000482187991    0.0200
     28 C28       -10.3564   -1.9507   58.5805 C.ar    1  ZINC000482187991    0.0600
     29 O29       -10.1541   -2.9937   59.4270 O.3     1  ZINC000482187991   -0.3100
     30 C30        -8.7986   -3.3274   59.7328 C.3     1  ZINC000482187991    0.0400
     31 H31       -12.1590   -5.0422   56.4814 H       1  ZINC000482187991    0.1100
     32 H32       -12.5336   -4.0248   57.8931 H       1  ZINC000482187991    0.0600
     33 H33       -12.8502   -3.4183   56.2498 H       1  ZINC000482187991    0.0600
     34 H34       -11.2000   -1.3191   55.3656 H       1  ZINC000482187991    0.1500
     35 H35       -10.2412    3.0916   55.0253 H       1  ZINC000482187991    0.1100
     36 H36        -9.8325    2.9100   56.7481 H       1  ZINC000482187991    0.1100
     37 H37        -7.7878    2.4230   55.6865 H       1  ZINC000482187991    0.1000
     38 H38        -8.4826    0.8045   55.9432 H       1  ZINC000482187991    0.1000
     39 H39        -6.9188    2.6043   53.5852 H       1  ZINC000482187991    0.4100
     40 H40        -5.3755    3.2716   52.3087 H       1  ZINC000482187991    0.1200
     41 H41        -3.0547    2.8676   51.5917 H       1  ZINC000482187991    0.1300
     42 H42        -2.5251    0.9277   50.1706 H       1  ZINC000482187991    0.1300
     43 H43        -4.3161   -0.6086   49.4670 H       1  ZINC000482187991    0.1300
     44 H44        -6.6361   -0.2072   50.1877 H       1  ZINC000482187991    0.1300
     45 H45        -8.2241    2.7999   49.9326 H       1  ZINC000482187991    0.1200
     46 H46       -10.2822    1.4315   58.5353 H       1  ZINC000482187991    0.1500
     47 H47       -10.2546    1.6057   60.4587 H       1  ZINC000482187991    0.0600
     48 H48       -11.5570    0.5226   61.0058 H       1  ZINC000482187991    0.0600
     49 H49       -10.1083    0.7528   62.0142 H       1  ZINC000482187991    0.1100
     50 H50        -8.2728   -3.5891   58.8146 H       1  ZINC000482187991    0.0500
     51 H51        -8.3103   -2.4720   60.1999 H       1  ZINC000482187991    0.0500
     52 H52        -8.7788   -4.1755   60.4172 H       1  ZINC000482187991    0.1000
@<TRIPOS>BOND
     1     1     2    1
     2     1    31    1
     3     1    32    1
     4     1    33    1
     5     2     3    1
     6     3    28   ar
     7     3     4   ar
     8     4     5   ar
     9     4    34    1
    10     5     6    1
    11     5    24   ar
    12     6     7    2
    13     6     8    1
    14     8     9    1
    15     8    35    1
    16     8    36    1
    17     9    10    1
    18     9    37    1
    19     9    38    1
    20    10    11    2
    21    10    12   am
    22    12    13    1
    23    12    39    1
    24    13    14    1
    25    13    15    1
    26    13    21    1
    27    15    20   ar
    28    15    16   ar
    29    16    17   ar
    30    16    40    1
    31    17    18   ar
    32    17    41    1
    33    18    19   ar
    34    18    42    1
    35    19    20   ar
    36    19    43    1
    37    20    44    1
    38    21    22    1
    39    21    23    1
    40    21    45    1
    41    24    25   ar
    42    24    46    1
    43    25    26    1
    44    25    28   ar
    45    26    27    1
    46    27    47    1
    47    27    48    1
    48    27    49    1
    49    28    29    1
    50    29    30    1
    51    30    50    1
    52    30    51    1
    53    30    52    1
@<TRIPOS>SUBSTRUCTURE
     1 ZINC000482187991        1 TEMP              0 ****  ****    0 ROOT


##########                                Name:    ZINC001411334959
##########                DOCK_Rotatable_Bonds:                   9
##########                         Heavy_Atoms:                  24
##########                    Molecular_Weight:              339.37
##########                DOCK_Rotatable_Bonds:                   9
##########                       Formal_Charge:           0.0199995
##########                     HBond_Acceptors:                   9
##########                        HBond_Donors:                   3
##########                         Heavy_Atoms:                  24
##########                          Grid_Score:          -37.573002
##########                     Grid_vdw_energy:          -34.170887
##########                      Grid_es_energy:           -3.402113
##########           Internal_energy_repulsive:            7.414284

@<TRIPOS>MOLECULE
ZINC001411334959
 46 48 1 0 0
SMALL
USER_CHARGES


@<TRIPOS>ATOM
      1 O1        -11.4509   -0.6915   56.7690 O.2     1  ZINC001411334959   -0.5400
      2 C2        -10.8058   -0.0833   57.5965 C.2     1  ZINC001411334959    0.5200
      3 C3        -10.6836   -0.6195   58.9996 C.3     1  ZINC001411334959   -0.1400
      4 C4         -9.4730   -1.5512   59.0860 C.3     1  ZINC001411334959   -0.0100
      5 C5         -9.8884   -2.9507   58.7120 C.2     1  ZINC001411334959    0.0100
      6 N6        -10.7718   -3.2980   57.8036 N.2     1  ZINC001411334959   -0.2800
      7 N7        -10.8515   -4.5813   57.7749 N.pl3   1  ZINC001411334959   -0.2500
      8 N8        -10.0513   -5.1070   58.6335 N.2     1  ZINC001411334959   -0.2800
      9 C9         -9.4090   -4.1445   59.2557 C.2     1  ZINC001411334959   -0.0200
     10 N10       -10.1934    1.0691   57.2599 N.am    1  ZINC001411334959   -0.7200
     11 C11       -10.3122    1.5903   55.8959 C.3     1  ZINC001411334959    0.1200
     12 C12        -9.7165    2.9972   55.7199 C.3     1  ZINC001411334959   -0.1400
     13 C13        -9.1758    2.5130   54.3641 C.3     1  ZINC001411334959   -0.1200
     14 C14        -7.7642    3.0143   54.0529 C.3     1  ZINC001411334959    0.1300
     15 N15        -7.3236    2.4662   52.7678 N.am    1  ZINC001411334959   -0.7200
     16 C16        -6.0776    2.7174   52.3196 C.2     1  ZINC001411334959    0.5100
     17 O17        -5.3206    3.3961   52.9809 O.2     1  ZINC001411334959   -0.5100
     18 C18        -5.6250    2.1550   50.9968 C.3     1  ZINC001411334959    0.0700
     19 F19        -6.0678    2.9571   49.9395 F       1  ZINC001411334959   -0.1800
     20 C20        -4.0807    1.9930   50.9643 C.3     1  ZINC001411334959   -0.1600
     21 C21        -3.9288    0.8226   49.9603 C.3     1  ZINC001411334959    0.0500
     22 O22        -5.0441   -0.0438   50.2228 O.3     1  ZINC001411334959   -0.3700
     23 C23        -6.1107    0.6999   50.8232 C.3     1  ZINC001411334959    0.0400
     24 C24        -9.2098    1.0905   54.9473 C.3     1  ZINC001411334959   -0.1400
     25 H25       -10.5544    0.2096   59.6955 H       1  ZINC001411334959    0.1000
     26 H26       -11.5868   -1.1726   59.2572 H       1  ZINC001411334959    0.1000
     27 H27        -8.6994   -1.2062   58.4000 H       1  ZINC001411334959    0.1000
     28 H28        -9.0837   -1.5475   60.1041 H       1  ZINC001411334959    0.0900
     29 H29       -11.4356   -5.0840   57.1860 H       1  ZINC001411334959    0.4700
     30 H30        -8.6673   -4.2539   60.0331 H       1  ZINC001411334959    0.2000
     31 H31        -9.6742    1.5535   57.9207 H       1  ZINC001411334959    0.4000
     32 H32       -11.3181    1.4867   55.4892 H       1  ZINC001411334959    0.1200
     33 H33       -10.4680    3.7821   55.6352 H       1  ZINC001411334959    0.0800
     34 H34        -8.9352    3.2340   56.4421 H       1  ZINC001411334959    0.0900
     35 H35        -9.8705    2.6643   53.5379 H       1  ZINC001411334959    0.1000
     36 H36        -7.7684    4.1031   54.0011 H       1  ZINC001411334959    0.0800
     37 H37        -7.0821    2.6907   54.8391 H       1  ZINC001411334959    0.0800
     38 H38        -7.9286    1.9223   52.2394 H       1  ZINC001411334959    0.4100
     39 H39        -3.5987    2.8963   50.5904 H       1  ZINC001411334959    0.1000
     40 H40        -3.6936    1.7210   51.9463 H       1  ZINC001411334959    0.1100
     41 H41        -3.9713    1.1944   48.9366 H       1  ZINC001411334959    0.0700
     42 H42        -2.9908    0.2950   50.1334 H       1  ZINC001411334959    0.1000
     43 H43        -6.3570    0.2738   51.7958 H       1  ZINC001411334959    0.0900
     44 H44        -6.9874    0.6775   50.1758 H       1  ZINC001411334959    0.0900
     45 H45        -8.2900    0.8061   55.4584 H       1  ZINC001411334959    0.0900
     46 H46        -9.5522    0.3363   54.2389 H       1  ZINC001411334959    0.0800
@<TRIPOS>BOND
     1     1     2    2
     2     2     3    1
     3     2    10   am
     4     3     4    1
     5     3    25    1
     6     3    26    1
     7     4     5    1
     8     4    27    1
     9     4    28    1
    10     5     9    1
    11     5     6    2
    12     6     7    1
    13     7     8    1
    14     7    29    1
    15     8     9    2
    16     9    30    1
    17    10    11    1
    18    10    31    1
    19    11    24    1
    20    11    12    1
    21    11    32    1
    22    12    13    1
    23    12    33    1
    24    12    34    1
    25    13    14    1
    26    13    24    1
    27    13    35    1
    28    14    15    1
    29    14    36    1
    30    14    37    1
    31    15    16   am
    32    15    38    1
    33    16    17    2
    34    16    18    1
    35    18    23    1
    36    18    19    1
    37    18    20    1
    38    20    21    1
    39    20    39    1
    40    20    40    1
    41    21    22    1
    42    21    41    1
    43    21    42    1
    44    22    23    1
    45    23    43    1
    46    23    44    1
    47    24    45    1
    48    24    46    1
@<TRIPOS>SUBSTRUCTURE
     1 ZINC001411334959        1 TEMP              0 ****  ****    0 ROOT


##########                                Name:    ZINC000015179664
##########                DOCK_Rotatable_Bonds:                   8
##########                         Heavy_Atoms:                  25
##########                    Molecular_Weight:             361.422
##########                DOCK_Rotatable_Bonds:                   8
##########                       Formal_Charge:        -2.23517e-07
##########                     HBond_Acceptors:                   8
##########                        HBond_Donors:                   1
##########                         Heavy_Atoms:                  25
##########                          Grid_Score:          -37.533710
##########                     Grid_vdw_energy:          -34.541302
##########                      Grid_es_energy:           -2.992409
##########           Internal_energy_repulsive:           19.398956

@<TRIPOS>MOLECULE
ZINC000015179664
 44 45 1 0 0
SMALL
USER_CHARGES


@<TRIPOS>ATOM
      1 C1        -12.3505    1.1049   57.8794 C.3     1  ZINC000015179664   -0.1600
      2 C2        -11.6996    0.1795   56.8493 C.3     1  ZINC000015179664    0.1800
      3 H3        -12.4615   -0.1982   56.1675 H       1  ZINC000015179664    0.1200
      4 C4        -11.0415   -0.9765   57.5575 C.ar    1  ZINC000015179664   -0.1000
      5 C5        -10.0475   -0.7411   58.4885 C.ar    1  ZINC000015179664   -0.0700
      6 C6         -9.4438   -1.8018   59.1383 C.ar    1  ZINC000015179664   -0.1200
      7 C7         -9.8345   -3.0973   58.8570 C.ar    1  ZINC000015179664   -0.0500
      8 C8        -10.8295   -3.3327   57.9263 C.ar    1  ZINC000015179664   -0.0400
      9 N9        -11.2476   -4.7202   57.6247 N.pl3   1  ZINC000015179664    0.0300
     10 O10       -10.7151   -5.6546   58.1965 O.2     1  ZINC000015179664   -0.1600
     11 O11       -12.1241   -4.9275   56.8048 O.2     1  ZINC000015179664   -0.1500
     12 C12       -11.4360   -2.2722   57.2799 C.ar    1  ZINC000015179664   -0.0400
     13 N13       -10.6920    0.9252   56.0910 N.am    1  ZINC000015179664   -0.6100
     14 C14       -10.1416    2.1706   56.6317 C.3     1  ZINC000015179664    0.0600
     15 C15       -10.2713    0.4654   54.8960 C.2     1  ZINC000015179664    0.5200
     16 O16       -10.7259   -0.5664   54.4491 O.2     1  ZINC000015179664   -0.5200
     17 C17        -9.2362    1.2333   54.1151 C.3     1  ZINC000015179664   -0.1500
     18 C18        -8.7561    0.3866   52.9346 C.3     1  ZINC000015179664    0.1300
     19 N19        -7.6466    1.0685   52.2637 N.am    1  ZINC000015179664   -0.7300
     20 C20        -6.7414    0.3557   51.5646 C.2     1  ZINC000015179664    0.5800
     21 O21        -6.8447   -0.8541   51.4918 O.2     1  ZINC000015179664   -0.5300
     22 C22        -5.6277    1.0411   50.8890 C.2     1  ZINC000015179664   -0.1500
     23 C23        -4.7291    0.4047   50.0907 C.2     1  ZINC000015179664   -0.2200
     24 S24        -3.5799    1.5033   49.4763 S.3     1  ZINC000015179664    0.1900
     25 C25        -4.3193    2.8592   50.3100 C.2     1  ZINC000015179664   -0.2300
     26 C26        -5.3804    2.4597   51.0009 C.2     1  ZINC000015179664   -0.0900
     27 H27       -13.1002    0.5501   58.4436 H       1  ZINC000015179664    0.0800
     28 H28       -11.5886    1.4826   58.5613 H       1  ZINC000015179664    0.0600
     29 H29       -12.8265    1.9410   57.3672 H       1  ZINC000015179664    0.0700
     30 H30        -9.7422    0.2712   58.7084 H       1  ZINC000015179664    0.1500
     31 H31        -8.6665   -1.6179   59.8652 H       1  ZINC000015179664    0.1500
     32 H32        -9.3624   -3.9258   59.3640 H       1  ZINC000015179664    0.1600
     33 H33       -12.2132   -2.4560   56.5530 H       1  ZINC000015179664    0.1600
     34 H34        -9.2853    1.9438   57.2667 H       1  ZINC000015179664    0.0600
     35 H35        -9.8250    2.8143   55.8110 H       1  ZINC000015179664    0.0800
     36 H36       -10.9051    2.6802   57.2195 H       1  ZINC000015179664    0.0800
     37 H37        -9.6747    2.1594   53.7434 H       1  ZINC000015179664    0.1000
     38 H38        -8.3911    1.4659   54.7629 H       1  ZINC000015179664    0.1000
     39 H39        -8.4196   -0.5847   53.2973 H       1  ZINC000015179664    0.0800
     40 H40        -9.5761    0.2472   52.2302 H       1  ZINC000015179664    0.0800
     41 H41        -7.5635    2.0332   52.3227 H       1  ZINC000015179664    0.4000
     42 H42        -4.7420   -0.6536   49.8753 H       1  ZINC000015179664    0.1700
     43 H43        -3.9630    3.8777   50.2643 H       1  ZINC000015179664    0.1700
     44 H44        -5.9915    3.1258   51.5920 H       1  ZINC000015179664    0.1600
@<TRIPOS>BOND
     1     1     2    1
     2     1    27    1
     3     1    28    1
     4     1    29    1
     5     2     3    1
     6     2     4    1
     7     2    13    1
     8     4    12   ar
     9     4     5   ar
    10     5     6   ar
    11     5    30    1
    12     6     7   ar
    13     6    31    1
    14     7     8   ar
    15     7    32    1
    16     8     9    1
    17     8    12   ar
    18     9    10    2
    19     9    11    2
    20    12    33    1
    21    13    14    1
    22    13    15   am
    23    14    34    1
    24    14    35    1
    25    14    36    1
    26    15    16    2
    27    15    17    1
    28    17    18    1
    29    17    37    1
    30    17    38    1
    31    18    19    1
    32    18    39    1
    33    18    40    1
    34    19    20   am
    35    19    41    1
    36    20    21    2
    37    20    22    1
    38    22    26    1
    39    22    23    2
    40    23    24    1
    41    23    42    1
    42    24    25    1
    43    25    26    2
    44    25    43    1
    45    26    44    1
@<TRIPOS>SUBSTRUCTURE
     1 ZINC000015179664        1 TEMP              0 ****  ****    0 ROOT


##########                                Name:    ZINC000654382142
##########                DOCK_Rotatable_Bonds:                  14
##########                         Heavy_Atoms:                  24
##########                    Molecular_Weight:             379.401
##########                DOCK_Rotatable_Bonds:                  14
##########                       Formal_Charge:          0.00999933
##########                     HBond_Acceptors:                  12
##########                        HBond_Donors:                   2
##########                         Heavy_Atoms:                  24
##########                          Grid_Score:          -37.505234
##########                     Grid_vdw_energy:          -36.673428
##########                      Grid_es_energy:           -0.831806
##########           Internal_energy_repulsive:           16.356516

@<TRIPOS>MOLECULE
ZINC000654382142
 48 47 1 0 0
SMALL
USER_CHARGES


@<TRIPOS>ATOM
      1 C1         -7.7963    2.3446   55.3697 C.3     1  ZINC000654382142    0.0300
      2 O2         -8.4314    1.0666   55.2941 O.3     1  ZINC000654382142   -0.3700
      3 C3         -9.7002    1.0862   54.6369 C.3     1  ZINC000654382142    0.0400
      4 C4         -9.4902    1.2080   53.1263 C.3     1  ZINC000654382142    0.1400
      5 N5         -8.6808    0.0823   52.6534 N.am    1  ZINC000654382142   -0.6100
      6 C6         -7.2370    0.2458   52.4662 C.3     1  ZINC000654382142    0.0800
      7 C7         -6.9517    0.6339   51.0140 C.3     1  ZINC000654382142    0.0500
      8 H8         -7.8167    1.1520   50.5997 H       1  ZINC000654382142    0.1400
      9 O9         -6.6904   -0.5442   50.2486 O.3     1  ZINC000654382142   -0.5200
     10 C10        -5.7320    1.5563   50.9628 C.3     1  ZINC000654382142    0.4200
     11 F11        -5.4387    1.8682   49.6309 F       1  ZINC000654382142   -0.1800
     12 F12        -6.0074    2.7330   51.6676 F       1  ZINC000654382142   -0.1700
     13 F13        -4.6348    0.9110   51.5431 F       1  ZINC000654382142   -0.1800
     14 C14        -9.2643   -1.1038   52.3904 C.2     1  ZINC000654382142    0.7100
     15 O15        -8.5922   -2.0385   51.9993 O.2     1  ZINC000654382142   -0.5600
     16 N16       -10.5927   -1.2538   52.5610 N.am    1  ZINC000654382142   -0.7500
     17 C17       -11.2273   -2.5426   52.2734 C.3     1  ZINC000654382142    0.1400
     18 C18       -11.1590   -3.4331   53.5158 C.3     1  ZINC000654382142   -0.1600
     19 C19       -12.0122   -2.8218   54.6289 C.3     1  ZINC000654382142    0.1200
     20 N20       -12.2278   -3.8175   55.6816 N.am    1  ZINC000654382142   -1.0000
     21 C21       -11.1364   -4.1666   56.5944 C.3     1  ZINC000654382142    0.0900
     22 S22       -13.7053   -4.5485   55.8398 S.o2    1  ZINC000654382142    2.6100
     23 C23       -14.8554   -3.1813   56.1539 C.3     1  ZINC000654382142   -0.6800
     24 O24       -13.9504   -5.1232   54.5635 O.2     1  ZINC000654382142   -0.9500
     25 O25       -13.5714   -5.3630   56.9965 O.2     1  ZINC000654382142   -0.9500
     26 H26        -6.8393    2.2450   55.8820 H       1  ZINC000654382142    0.0900
     27 H27        -7.6312    2.7284   54.3630 H       1  ZINC000654382142    0.0400
     28 H28        -8.4339    3.0351   55.9219 H       1  ZINC000654382142    0.0400
     29 H29       -10.2370    0.1632   54.8558 H       1  ZINC000654382142    0.0500
     30 H30       -10.2806    1.9373   54.9929 H       1  ZINC000654382142    0.0600
     31 H31       -10.4570    1.1971   52.6231 H       1  ZINC000654382142    0.0900
     32 H32        -8.9761    2.1434   52.9053 H       1  ZINC000654382142    0.1000
     33 H33        -6.8710    1.0288   53.1302 H       1  ZINC000654382142    0.1000
     34 H34        -6.7321   -0.6922   52.6975 H       1  ZINC000654382142    0.1000
     35 H35        -7.4087   -1.1914   50.2652 H       1  ZINC000654382142    0.3900
     36 H36       -11.1287   -0.5085   52.8742 H       1  ZINC000654382142    0.3900
     37 H37       -12.2698   -2.3811   51.9990 H       1  ZINC000654382142    0.0700
     38 H38       -10.7056   -3.0285   51.4489 H       1  ZINC000654382142    0.0700
     39 H39       -11.5366   -4.4261   53.2722 H       1  ZINC000654382142    0.0700
     40 H40       -10.1248   -3.5099   53.8513 H       1  ZINC000654382142    0.0800
     41 H41       -11.4981   -1.9563   55.0471 H       1  ZINC000654382142    0.0900
     42 H42       -12.9738   -2.5108   54.2204 H       1  ZINC000654382142    0.1000
     43 H43       -11.1650   -3.5090   57.4632 H       1  ZINC000654382142    0.0600
     44 H44       -11.2501   -5.2013   56.9178 H       1  ZINC000654382142    0.0700
     45 H45       -10.1820   -4.0490   56.0812 H       1  ZINC000654382142    0.0700
     46 H46       -14.8327   -2.4871   55.3137 H       1  ZINC000654382142    0.1300
     47 H47       -15.8648   -3.5754   56.2723 H       1  ZINC000654382142    0.1300
     48 H48       -14.5599   -2.6596   57.0642 H       1  ZINC000654382142    0.1300
@<TRIPOS>BOND
     1     1     2    1
     2     1    26    1
     3     1    27    1
     4     1    28    1
     5     2     3    1
     6     3     4    1
     7     3    29    1
     8     3    30    1
     9     4     5    1
    10     4    31    1
    11     4    32    1
    12     5     6    1
    13     5    14   am
    14     6     7    1
    15     6    33    1
    16     6    34    1
    17     7     8    1
    18     7     9    1
    19     7    10    1
    20     9    35    1
    21    10    11    1
    22    10    12    1
    23    10    13    1
    24    14    15    2
    25    14    16   am
    26    16    17    1
    27    16    36    1
    28    17    18    1
    29    17    37    1
    30    17    38    1
    31    18    19    1
    32    18    39    1
    33    18    40    1
    34    19    20    1
    35    19    41    1
    36    19    42    1
    37    20    21    1
    38    20    22   am
    39    21    43    1
    40    21    44    1
    41    21    45    1
    42    22    23    1
    43    22    24    2
    44    22    25    2
    45    23    46    1
    46    23    47    1
    47    23    48    1
@<TRIPOS>SUBSTRUCTURE
     1 ZINC000654382142        1 TEMP              0 ****  ****    0 ROOT


##########                                Name:    ZINC001083519372
##########                DOCK_Rotatable_Bonds:                   7
##########                         Heavy_Atoms:                  27
##########                    Molecular_Weight:             370.411
##########                DOCK_Rotatable_Bonds:                   7
##########                       Formal_Charge:           0.0399996
##########                     HBond_Acceptors:                   9
##########                        HBond_Donors:                   2
##########                         Heavy_Atoms:                  27
##########                          Grid_Score:          -37.451977
##########                     Grid_vdw_energy:          -33.729046
##########                      Grid_es_energy:           -3.722930
##########           Internal_energy_repulsive:            7.692507

@<TRIPOS>MOLECULE
ZINC001083519372
 49 52 1 0 0
SMALL
USER_CHARGES


@<TRIPOS>ATOM
      1 C1         -7.4836    0.9448   64.8538 C.3     1  ZINC001083519372   -0.1500
      2 C2         -8.5499   -0.0200   65.3762 C.3     1  ZINC001083519372   -0.0100
      3 C3         -8.6335    0.0889   66.9001 C.3     1  ZINC001083519372   -0.1500
      4 C4         -9.8853    0.3328   64.7734 C.2     1  ZINC001083519372   -0.0100
      5 C5        -10.2580    0.1482   63.4962 C.2     1  ZINC001083519372   -0.0100
      6 C6         -9.4139   -0.4517   62.4013 C.3     1  ZINC001083519372    0.1300
      7 N7        -10.2793   -1.1567   61.4464 N.3     1  ZINC001083519372   -0.5000
      8 C8        -10.3785   -0.4100   60.1662 C.3     1  ZINC001083519372    0.0300
      9 C9        -10.8441   -1.4920   59.1599 C.3     1  ZINC001083519372    0.1500
     10 H10       -11.9206   -1.6477   59.2313 H       1  ZINC001083519372    0.1200
     11 N11       -10.4649   -1.1260   57.7929 N.am    1  ZINC001083519372   -0.6900
     12 C12       -11.3066   -1.3755   56.7703 C.2     1  ZINC001083519372    0.5600
     13 O13       -12.3814   -1.9029   56.9824 O.2     1  ZINC001083519372   -0.5100
     14 C14       -10.9240   -1.0087   55.3938 C.2     1  ZINC001083519372    0.1400
     15 C15       -10.3889    0.2219   55.1234 C.2     1  ZINC001083519372   -0.1500
     16 C16       -10.0356    0.5405   53.8054 C.2     1  ZINC001083519372    0.1800
     17 N17       -10.2148   -0.3290   52.8402 N.2     1  ZINC001083519372   -0.4400
     18 C18       -10.7360   -1.5360   53.0838 C.2     1  ZINC001083519372    0.2500
     19 C19       -11.0253   -2.6190   52.2608 C.2     1  ZINC001083519372   -0.2500
     20 C20       -11.5598   -3.6197   53.0552 C.2     1  ZINC001083519372    0.1000
     21 N21       -11.6068   -3.1996   54.3007 N.2     1  ZINC001083519372   -0.3100
     22 N22       -11.0935   -1.8995   54.3585 N.pl3   1  ZINC001083519372   -0.3100
     23 C23       -10.0772   -2.7507   59.6261 C.3     1  ZINC001083519372    0.0900
     24 H24       -10.7137   -3.6321   59.5480 H       1  ZINC001083519372    0.0800
     25 O25        -8.8915   -2.9257   58.8479 O.3     1  ZINC001083519372   -0.5600
     26 C26        -9.7174   -2.4800   61.0987 C.3     1  ZINC001083519372    0.0100
     27 N27       -11.5202    0.5949   63.3707 N.2     1  ZINC001083519372   -0.4800
     28 C28       -11.9218    1.0423   64.5262 C.2     1  ZINC001083519372    0.1700
     29 O29       -10.9320    0.8874   65.4157 O.3     1  ZINC001083519372   -0.2000
     30 H30        -7.4241    0.8674   63.7682 H       1  ZINC001083519372    0.0600
     31 H31        -7.7494    1.9650   65.1311 H       1  ZINC001083519372    0.0600
     32 H32        -6.5178    0.6897   65.2897 H       1  ZINC001083519372    0.0700
     33 H33        -8.2842   -1.0400   65.0989 H       1  ZINC001083519372    0.1000
     34 H34        -8.8993    1.1090   67.1775 H       1  ZINC001083519372    0.0600
     35 H35        -9.3932   -0.5984   67.2724 H       1  ZINC001083519372    0.0600
     36 H36        -7.6676   -0.1662   67.3361 H       1  ZINC001083519372    0.0700
     37 H37        -8.8723    0.3406   61.8846 H       1  ZINC001083519372    0.0900
     38 H38        -8.7027   -1.1549   62.8349 H       1  ZINC001083519372    0.0600
     39 H39       -11.1173    0.3879   60.2426 H       1  ZINC001083519372    0.1000
     40 H40        -9.4066   -0.0094   59.8782 H       1  ZINC001083519372    0.0600
     41 H41        -9.6079   -0.7042   57.6238 H       1  ZINC001083519372    0.4300
     42 H42       -10.2410    0.9393   55.9170 H       1  ZINC001083519372    0.1800
     43 H43        -9.6131    1.5093   53.5827 H       1  ZINC001083519372    0.1900
     44 H44       -10.8627   -2.6704   51.1943 H       1  ZINC001083519372    0.1700
     45 H45       -11.8856   -4.5890   52.7079 H       1  ZINC001083519372    0.2000
     46 H46        -8.3335   -2.1375   58.7987 H       1  ZINC001083519372    0.3900
     47 H47        -8.6343   -2.4670   61.2200 H       1  ZINC001083519372    0.0700
     48 H48       -10.1558   -3.2484   61.7354 H       1  ZINC001083519372    0.0900
     49 H49       -12.8938    1.4645   64.7338 H       1  ZINC001083519372    0.2500
@<TRIPOS>BOND
     1     1     2    1
     2     1    30    1
     3     1    31    1
     4     1    32    1
     5     2     3    1
     6     2     4    1
     7     2    33    1
     8     3    34    1
     9     3    35    1
    10     3    36    1
    11     4    29    1
    12     4     5    2
    13     5     6    1
    14     5    27    1
    15     6     7    1
    16     6    37    1
    17     6    38    1
    18     7    26    1
    19     7     8    1
    20     8     9    1
    21     8    39    1
    22     8    40    1
    23     9    10    1
    24     9    11    1
    25     9    23    1
    26    11    12   am
    27    11    41    1
    28    12    13    2
    29    12    14    1
    30    14    22    1
    31    14    15    2
    32    15    16    1
    33    15    42    1
    34    16    17    2
    35    16    43    1
    36    17    18    1
    37    18    22    1
    38    18    19    2
    39    19    20    1
    40    19    44    1
    41    20    21    2
    42    20    45    1
    43    21    22    1
    44    23    24    1
    45    23    25    1
    46    23    26    1
    47    25    46    1
    48    26    47    1
    49    26    48    1
    50    27    28    2
    51    28    29    1
    52    28    49    1
@<TRIPOS>SUBSTRUCTURE
     1 ZINC001083519372        1 TEMP              0 ****  ****    0 ROOT


##########                                Name:    ZINC000512239524
##########                DOCK_Rotatable_Bonds:                   9
##########                         Heavy_Atoms:                  31
##########                    Molecular_Weight:             424.518
##########                DOCK_Rotatable_Bonds:                   9
##########                       Formal_Charge:          0.00999919
##########                     HBond_Acceptors:                   7
##########                        HBond_Donors:                   1
##########                         Heavy_Atoms:                  31
##########                          Grid_Score:          -37.377319
##########                     Grid_vdw_energy:          -32.932659
##########                      Grid_es_energy:           -4.444661
##########           Internal_energy_repulsive:           29.993124

@<TRIPOS>MOLECULE
ZINC000512239524
 60 63 1 0 0
SMALL
USER_CHARGES


@<TRIPOS>ATOM
      1 C1        -11.6207   -0.5184   60.2881 C.3     1  ZINC000512239524   -0.1600
      2 C2        -11.5469   -1.0826   58.8678 C.3     1  ZINC000512239524    0.2000
      3 H3        -12.5556   -1.2550   58.4926 H       1  ZINC000512239524    0.1100
      4 N4        -10.8590   -0.1258   57.9975 N.am    1  ZINC000512239524   -0.7400
      5 C5        -11.5687    0.7899   57.3088 C.2     1  ZINC000512239524    0.7100
      6 O6        -12.7800    0.8220   57.4100 O.2     1  ZINC000512239524   -0.5800
      7 N7        -10.9358    1.6701   56.5081 N.am    1  ZINC000512239524   -0.6300
      8 C8         -9.4733    1.6400   56.3710 C.3     1  ZINC000512239524    0.1300
      9 C9         -9.1193    1.5506   54.8831 C.3     1  ZINC000512239524   -0.1100
     10 C10        -9.7976    2.6984   54.1317 C.3     1  ZINC000512239524   -0.1000
     11 C11        -9.4241    2.6335   52.6732 C.2     1  ZINC000512239524    0.5300
     12 O12       -10.0432    1.9118   51.9202 O.2     1  ZINC000512239524   -0.5300
     13 N13        -8.4022    3.3775   52.2055 N.am    1  ZINC000512239524   -0.5800
     14 C14        -8.0403    3.3157   50.7872 C.3     1  ZINC000512239524    0.1500
     15 C15        -6.9764    2.2675   50.5855 C.ar    1  ZINC000512239524   -0.1100
     16 C16        -7.1535    0.9956   51.0971 C.ar    1  ZINC000512239524   -0.0900
     17 C17        -6.1776    0.0342   50.9121 C.ar    1  ZINC000512239524   -0.1200
     18 C18        -5.0249    0.3446   50.2152 C.ar    1  ZINC000512239524   -0.1100
     19 C19        -4.8482    1.6162   49.7029 C.ar    1  ZINC000512239524   -0.1200
     20 C20        -5.8259    2.5764   49.8841 C.ar    1  ZINC000512239524   -0.1100
     21 C21        -7.6534    4.2479   53.1153 C.3     1  ZINC000512239524    0.0700
     22 C22        -6.5217    3.6147   53.9271 C.3     1  ZINC000512239524   -0.1900
     23 C23        -6.1961    4.5519   52.7625 C.3     1  ZINC000512239524   -0.2000
     24 C24       -11.3164    2.5771   54.2750 C.3     1  ZINC000512239524   -0.1400
     25 C25       -11.6958    2.6742   55.7512 C.3     1  ZINC000512239524    0.1100
     26 C26       -10.7874   -2.3841   58.8832 C.ar    1  ZINC000512239524   -0.0800
     27 C27        -9.4979   -2.4471   59.3873 C.ar    1  ZINC000512239524   -0.1400
     28 C28        -8.8320   -3.6585   59.3856 C.ar    1  ZINC000512239524    0.1000
     29 N29        -9.4083   -4.7456   58.9118 N.ar    1  ZINC000512239524   -0.4600
     30 C30       -10.6333   -4.7251   58.4240 C.ar    1  ZINC000512239524    0.0800
     31 C31       -11.3646   -3.5502   58.3978 C.ar    1  ZINC000512239524    0.0600
     32 F32       -12.6192   -3.5358   57.8968 F       1  ZINC000512239524   -0.1200
     33 H33       -12.1701    0.4229   60.2771 H       1  ZINC000512239524    0.0700
     34 H34       -12.1326   -1.2303   60.9357 H       1  ZINC000512239524    0.0700
     35 H35       -10.6120   -0.3460   60.6634 H       1  ZINC000512239524    0.0600
     36 H36        -9.8927   -0.1515   57.9167 H       1  ZINC000512239524    0.3900
     37 H37        -9.0478    2.5501   56.7938 H       1  ZINC000512239524    0.0700
     38 H38        -9.0751    0.7706   56.8942 H       1  ZINC000512239524    0.1000
     39 H39        -8.0387    1.6242   54.7613 H       1  ZINC000512239524    0.0900
     40 H40        -9.4670    0.5981   54.4832 H       1  ZINC000512239524    0.0800
     41 H41        -9.4685    3.6501   54.5488 H       1  ZINC000512239524    0.1000
     42 H42        -8.9206    3.0576   50.1985 H       1  ZINC000512239524    0.0900
     43 H43        -7.6603    4.2856   50.4666 H       1  ZINC000512239524    0.1000
     44 H44        -8.0541    0.7531   51.6416 H       1  ZINC000512239524    0.1300
     45 H45        -6.3156   -0.9593   51.3124 H       1  ZINC000512239524    0.1200
     46 H46        -4.2621   -0.4064   50.0713 H       1  ZINC000512239524    0.1200
     47 H47        -3.9474    1.8588   49.1586 H       1  ZINC000512239524    0.1200
     48 H48        -5.6879    3.5700   49.4838 H       1  ZINC000512239524    0.1200
     49 H49        -8.2319    5.0401   53.5905 H       1  ZINC000512239524    0.1300
     50 H50        -6.3556    3.9901   54.9368 H       1  ZINC000512239524    0.1100
     51 H51        -6.3343    2.5505   53.7843 H       1  ZINC000512239524    0.1000
     52 H52        -5.7944    4.1042   51.8534 H       1  ZINC000512239524    0.1100
     53 H53        -5.8156    5.5439   53.0059 H       1  ZINC000512239524    0.1000
     54 H54       -11.7996    3.3813   53.7202 H       1  ZINC000512239524    0.0900
     55 H55       -11.6434    1.6149   53.8807 H       1  ZINC000512239524    0.0700
     56 H56       -12.7638    2.4896   55.8669 H       1  ZINC000512239524    0.0800
     57 H57       -11.4518    3.6680   56.1266 H       1  ZINC000512239524    0.0800
     58 H58        -9.0191   -1.5607   59.7764 H       1  ZINC000512239524    0.1400
     59 H59        -7.8269   -3.7152   59.7769 H       1  ZINC000512239524    0.1700
     60 H60       -11.0722   -5.6359   58.0443 H       1  ZINC000512239524    0.1700
@<TRIPOS>BOND
     1     1     2    1
     2     1    33    1
     3     1    34    1
     4     1    35    1
     5     2     3    1
     6     2     4    1
     7     2    26    1
     8     4     5   am
     9     4    36    1
    10     5     6    2
    11     5     7   am
    12     7    25    1
    13     7     8    1
    14     8     9    1
    15     8    37    1
    16     8    38    1
    17     9    10    1
    18     9    39    1
    19     9    40    1
    20    10    11    1
    21    10    24    1
    22    10    41    1
    23    11    12    2
    24    11    13   am
    25    13    14    1
    26    13    21    1
    27    14    15    1
    28    14    42    1
    29    14    43    1
    30    15    20   ar
    31    15    16   ar
    32    16    17   ar
    33    16    44    1
    34    17    18   ar
    35    17    45    1
    36    18    19   ar
    37    18    46    1
    38    19    20   ar
    39    19    47    1
    40    20    48    1
    41    21    23    1
    42    21    22    1
    43    21    49    1
    44    22    23    1
    45    22    50    1
    46    22    51    1
    47    23    52    1
    48    23    53    1
    49    24    25    1
    50    24    54    1
    51    24    55    1
    52    25    56    1
    53    25    57    1
    54    26    31   ar
    55    26    27   ar
    56    27    28   ar
    57    27    58    1
    58    28    29   ar
    59    28    59    1
    60    29    30   ar
    61    30    31   ar
    62    30    60    1
    63    31    32    1
@<TRIPOS>SUBSTRUCTURE
     1 ZINC000512239524        1 TEMP              0 ****  ****    0 ROOT


##########                                Name:    ZINC000461678839
##########                DOCK_Rotatable_Bonds:                   6
##########                         Heavy_Atoms:                  28
##########                    Molecular_Weight:             404.939
##########                DOCK_Rotatable_Bonds:                   6
##########                       Formal_Charge:          -0.0200003
##########                     HBond_Acceptors:                   7
##########                        HBond_Donors:                   0
##########                         Heavy_Atoms:                  28
##########                          Grid_Score:          -37.362823
##########                     Grid_vdw_energy:          -35.652897
##########                      Grid_es_energy:           -1.709927
##########           Internal_energy_repulsive:           18.803812

@<TRIPOS>MOLECULE
ZINC000461678839
 57 60 1 0 0
SMALL
USER_CHARGES


@<TRIPOS>ATOM
      1 C1        -13.9799   -3.7085   55.5554 C.3     1  ZINC000461678839   -0.1500
      2 C2        -13.3456   -2.5963   54.7179 C.3     1  ZINC000461678839   -0.0900
      3 H3        -13.8258   -1.6490   54.9629 H       1  ZINC000461678839    0.0700
      4 C4        -13.5704   -2.9027   53.2201 C.3     1  ZINC000461678839   -0.1100
      5 C5        -13.3530   -1.6415   52.4273 C.3     1  ZINC000461678839   -0.1200
      6 C6        -11.9031   -1.4847   51.9353 C.3     1  ZINC000461678839    0.0600
      7 N7        -10.8955   -1.8502   52.9551 N.3     1  ZINC000461678839   -0.4600
      8 C8         -9.6286   -1.4400   52.5710 C.2     1  ZINC000461678839    0.3700
      9 N9         -8.6634   -2.2068   52.1214 N.2     1  ZINC000461678839   -0.3100
     10 N10        -7.6257   -1.4946   51.8606 N.2     1  ZINC000461678839   -0.2500
     11 C11        -7.8653   -0.2418   52.1261 C.2     1  ZINC000461678839    0.1700
     12 C12        -6.9051    0.9071   51.9550 C.3     1  ZINC000461678839    0.1500
     13 O13        -5.9004    0.5504   51.0034 O.3     1  ZINC000461678839   -0.3100
     14 C14        -4.8245    1.3750   50.9037 C.ar    1  ZINC000461678839    0.1400
     15 C15        -3.7702    1.0427   50.0657 C.ar    1  ZINC000461678839   -0.2000
     16 C16        -2.6775    1.8820   49.9657 C.ar    1  ZINC000461678839   -0.0700
     17 C17        -2.6341    3.0533   50.7011 C.ar    1  ZINC000461678839   -0.0700
     18 Cl18       -1.2597    4.1061   50.5743 Cl      1  ZINC000461678839   -0.0700
     19 C19        -3.6850    3.3867   51.5372 C.ar    1  ZINC000461678839   -0.0700
     20 C20        -4.7819    2.5528   51.6355 C.ar    1  ZINC000461678839   -0.1400
     21 N21        -9.1516   -0.1617   52.5832 N.pl3   1  ZINC000461678839   -0.4600
     22 C22        -9.8662    1.0451   53.0066 C.3     1  ZINC000461678839    0.1200
     23 C23        -9.3835    1.4623   54.3971 C.3     1  ZINC000461678839   -0.1400
     24 H24        -8.8593    0.6382   54.8811 H       1  ZINC000461678839    0.0900
     25 C25       -10.5756    1.9312   55.2664 C.3     1  ZINC000461678839   -0.1500
     26 C26        -9.9770    3.1552   56.0052 C.3     1  ZINC000461678839    0.0500
     27 O27        -9.1301    3.7685   55.0096 O.3     1  ZINC000461678839   -0.3700
     28 C28        -8.4711    2.7005   54.3023 C.3     1  ZINC000461678839    0.0400
     29 C29       -11.2136   -1.3746   54.2798 C.3     1  ZINC000461678839    0.0700
     30 C30       -11.9259   -2.5078   55.0410 C.3     1  ZINC000461678839   -0.1100
     31 H31       -13.8416   -3.4897   56.6143 H       1  ZINC000461678839    0.0500
     32 H32       -15.0453   -3.7683   55.3330 H       1  ZINC000461678839    0.0500
     33 H33       -13.5046   -4.6598   55.3158 H       1  ZINC000461678839    0.0600
     34 H34       -12.8638   -3.6657   52.8934 H       1  ZINC000461678839    0.0700
     35 H35       -14.5898   -3.2578   53.0689 H       1  ZINC000461678839    0.0700
     36 H36       -14.0179   -1.6508   51.5636 H       1  ZINC000461678839    0.0800
     37 H37       -13.6060   -0.7856   53.0530 H       1  ZINC000461678839    0.0700
     38 H38       -11.7604   -2.1183   51.0599 H       1  ZINC000461678839    0.0700
     39 H39       -11.7435   -0.4470   51.6424 H       1  ZINC000461678839    0.0500
     40 H40        -7.4469    1.7836   51.6000 H       1  ZINC000461678839    0.0800
     41 H41        -6.4351    1.1333   52.9121 H       1  ZINC000461678839    0.1000
     42 H42        -3.8033    0.1283   49.4920 H       1  ZINC000461678839    0.1400
     43 H43        -1.8564    1.6237   49.3134 H       1  ZINC000461678839    0.1400
     44 H44        -3.6495    4.3014   52.1101 H       1  ZINC000461678839    0.1400
     45 H45        -5.6020    2.8133   52.2881 H       1  ZINC000461678839    0.1400
     46 H46        -9.6717    1.8500   52.2977 H       1  ZINC000461678839    0.1100
     47 H47       -10.9364    0.8408   53.0395 H       1  ZINC000461678839    0.1000
     48 H48       -11.4190    2.2275   54.6427 H       1  ZINC000461678839    0.0800
     49 H49       -10.8700    1.1559   55.9737 H       1  ZINC000461678839    0.0900
     50 H50       -10.7661    3.8413   56.3131 H       1  ZINC000461678839    0.1000
     51 H51        -9.3886    2.8347   56.8649 H       1  ZINC000461678839    0.0600
     52 H52        -7.5065    2.4899   54.7641 H       1  ZINC000461678839    0.0500
     53 H53        -8.3314    2.9786   53.2577 H       1  ZINC000461678839    0.1100
     54 H54       -10.2968   -1.1005   54.8017 H       1  ZINC000461678839    0.0900
     55 H55       -11.8708   -0.5077   54.2108 H       1  ZINC000461678839    0.0600
     56 H56       -11.8202   -2.3334   56.1117 H       1  ZINC000461678839    0.0700
     57 H57       -11.4469   -3.4547   54.7918 H       1  ZINC000461678839    0.0700
@<TRIPOS>BOND
     1     1     2    1
     2     1    31    1
     3     1    32    1
     4     1    33    1
     5     2     3    1
     6     2    30    1
     7     2     4    1
     8     4     5    1
     9     4    34    1
    10     4    35    1
    11     5     6    1
    12     5    36    1
    13     5    37    1
    14     6     7    1
    15     6    38    1
    16     6    39    1
    17     7     8    1
    18     7    29    1
    19     8    21    1
    20     8     9    2
    21     9    10    1
    22    10    11    2
    23    11    12    1
    24    11    21    1
    25    12    13    1
    26    12    40    1
    27    12    41    1
    28    13    14    1
    29    14    20   ar
    30    14    15   ar
    31    15    16   ar
    32    15    42    1
    33    16    17   ar
    34    16    43    1
    35    17    18    1
    36    17    19   ar
    37    19    20   ar
    38    19    44    1
    39    20    45    1
    40    21    22    1
    41    22    23    1
    42    22    46    1
    43    22    47    1
    44    23    24    1
    45    23    28    1
    46    23    25    1
    47    25    26    1
    48    25    48    1
    49    25    49    1
    50    26    27    1
    51    26    50    1
    52    26    51    1
    53    27    28    1
    54    28    52    1
    55    28    53    1
    56    29    30    1
    57    29    54    1
    58    29    55    1
    59    30    56    1
    60    30    57    1
@<TRIPOS>SUBSTRUCTURE
     1 ZINC000461678839        1 TEMP              0 ****  ****    0 ROOT


##########                                Name:    ZINC000762187039
##########                DOCK_Rotatable_Bonds:                   9
##########                         Heavy_Atoms:                  25
##########                    Molecular_Weight:             354.473
##########                DOCK_Rotatable_Bonds:                   9
##########                       Formal_Charge:        -1.78814e-07
##########                     HBond_Acceptors:                   5
##########                        HBond_Donors:                   1
##########                         Heavy_Atoms:                  25
##########                          Grid_Score:          -37.361504
##########                     Grid_vdw_energy:          -37.151169
##########                      Grid_es_energy:           -0.210335
##########           Internal_energy_repulsive:            5.282286

@<TRIPOS>MOLECULE
ZINC000762187039
 47 49 1 0 0
SMALL
USER_CHARGES


@<TRIPOS>ATOM
      1 C1         -3.2825    1.5492   49.8701 C.3     1  ZINC000762187039   -0.0800
      2 C2         -4.2603    1.9427   50.9472 C.2     1  ZINC000762187039    0.0500
      3 N3         -5.5049    1.6035   50.9745 N.2     1  ZINC000762187039   -0.4700
      4 C4         -6.2227    2.0337   51.9925 C.2     1  ZINC000762187039    0.0700
      5 C5         -7.6865    1.7130   52.1511 C.3     1  ZINC000762187039   -0.0300
      6 C6         -7.8452    0.4839   53.0482 C.3     1  ZINC000762187039   -0.1300
      7 C7         -9.2231   -0.0981   52.8641 C.2     1  ZINC000762187039    0.5200
      8 O8        -10.2028    0.5829   53.0813 O.2     1  ZINC000762187039   -0.5400
      9 N9         -9.3665   -1.3752   52.4581 N.am    1  ZINC000762187039   -0.7300
     10 C10       -10.7059   -1.9414   52.2807 C.3     1  ZINC000762187039    0.1200
     11 C11       -11.0154   -2.8919   53.4390 C.3     1  ZINC000762187039   -0.1300
     12 C12       -11.2709   -2.0802   54.7106 C.3     1  ZINC000762187039    0.0600
     13 O13       -11.7293   -2.9504   55.7472 O.3     1  ZINC000762187039   -0.3100
     14 C14       -11.1477   -2.8158   56.9678 C.ar    1  ZINC000762187039    0.1300
     15 C15       -10.4211   -3.8814   57.5072 C.ar    1  ZINC000762187039   -0.1900
     16 C16        -9.8275   -3.7770   58.7265 C.ar    1  ZINC000762187039   -0.0600
     17 C17        -9.9432   -2.5823   59.4580 C.ar    1  ZINC000762187039   -0.0800
     18 C18        -9.3424   -2.4398   60.7203 C.ar    1  ZINC000762187039   -0.0900
     19 C19        -9.4743   -1.2687   61.4010 C.ar    1  ZINC000762187039   -0.1300
     20 C20       -10.1978   -0.2047   60.8652 C.ar    1  ZINC000762187039   -0.1000
     21 C21       -10.7935   -0.3059   59.6459 C.ar    1  ZINC000762187039   -0.1200
     22 C22       -10.6791   -1.5001   58.9128 C.ar    1  ZINC000762187039   -0.0100
     23 C23       -11.2758   -1.6389   57.6494 C.ar    1  ZINC000762187039   -0.1500
     24 C24        -5.5459    2.7771   52.8730 C.2     1  ZINC000762187039   -0.2600
     25 S25        -3.8794    2.8972   52.3136 S.3     1  ZINC000762187039    0.1200
     26 H26        -2.3021    1.9670   50.0991 H       1  ZINC000762187039    0.0800
     27 H27        -3.2121    0.4625   49.8226 H       1  ZINC000762187039    0.0900
     28 H28        -3.6258    1.9334   48.9096 H       1  ZINC000762187039    0.0900
     29 H29        -8.1976    2.5622   52.6047 H       1  ZINC000762187039    0.0900
     30 H30        -8.1215    1.5074   51.1729 H       1  ZINC000762187039    0.0900
     31 H31        -7.0970   -0.2616   52.7789 H       1  ZINC000762187039    0.0900
     32 H32        -7.7098    0.7746   54.0900 H       1  ZINC000762187039    0.1000
     33 H33        -8.5828   -1.9194   52.2832 H       1  ZINC000762187039    0.4000
     34 H34       -11.4412   -1.1369   52.2646 H       1  ZINC000762187039    0.0700
     35 H35       -10.7469   -2.4899   51.3397 H       1  ZINC000762187039    0.0700
     36 H36       -11.9012   -3.4802   53.1994 H       1  ZINC000762187039    0.0800
     37 H37       -10.1681   -3.5590   53.5980 H       1  ZINC000762187039    0.0800
     38 H38       -10.3461   -1.5965   55.0247 H       1  ZINC000762187039    0.0700
     39 H39       -12.0281   -1.3218   54.5114 H       1  ZINC000762187039    0.0700
     40 H40       -10.3301   -4.8009   56.9479 H       1  ZINC000762187039    0.1300
     41 H41        -9.2698   -4.6086   59.1312 H       1  ZINC000762187039    0.1300
     42 H42        -8.7788   -3.2557   61.1484 H       1  ZINC000762187039    0.1300
     43 H43        -9.0116   -1.1623   62.3711 H       1  ZINC000762187039    0.1200
     44 H44       -10.2874    0.7138   61.4264 H       1  ZINC000762187039    0.1200
     45 H45       -11.3510    0.5269   59.2433 H       1  ZINC000762187039    0.1300
     46 H46       -11.8358   -0.8211   57.2205 H       1  ZINC000762187039    0.1300
     47 H47        -5.9484    3.2225   53.7708 H       1  ZINC000762187039    0.1800
@<TRIPOS>BOND
     1     1     2    1
     2     1    26    1
     3     1    27    1
     4     1    28    1
     5     2    25    1
     6     2     3    2
     7     3     4    1
     8     4     5    1
     9     4    24    2
    10     5     6    1
    11     5    29    1
    12     5    30    1
    13     6     7    1
    14     6    31    1
    15     6    32    1
    16     7     8    2
    17     7     9   am
    18     9    10    1
    19     9    33    1
    20    10    11    1
    21    10    34    1
    22    10    35    1
    23    11    12    1
    24    11    36    1
    25    11    37    1
    26    12    13    1
    27    12    38    1
    28    12    39    1
    29    13    14    1
    30    14    23   ar
    31    14    15   ar
    32    15    16   ar
    33    15    40    1
    34    16    17   ar
    35    16    41    1
    36    17    22   ar
    37    17    18   ar
    38    18    19   ar
    39    18    42    1
    40    19    20   ar
    41    19    43    1
    42    20    21   ar
    43    20    44    1
    44    21    22   ar
    45    21    45    1
    46    22    23   ar
    47    23    46    1
    48    24    25    1
    49    24    47    1
@<TRIPOS>SUBSTRUCTURE
     1 ZINC000762187039        1 TEMP              0 ****  ****    0 ROOT


##########                                Name:    ZINC000826435081
##########                DOCK_Rotatable_Bonds:                   7
##########                         Heavy_Atoms:                  28
##########                    Molecular_Weight:             388.361
##########                DOCK_Rotatable_Bonds:                   7
##########                       Formal_Charge:           0.0099996
##########                     HBond_Acceptors:                  12
##########                        HBond_Donors:                   3
##########                         Heavy_Atoms:                  28
##########                          Grid_Score:          -37.340839
##########                     Grid_vdw_energy:          -35.867420
##########                      Grid_es_energy:           -1.473420
##########           Internal_energy_repulsive:           10.548618

@<TRIPOS>MOLECULE
ZINC000826435081
 45 48 1 0 0
SMALL
USER_CHARGES


@<TRIPOS>ATOM
      1 O1         -9.3410    1.9757   52.0550 O.2     1  ZINC000826435081   -0.5700
      2 C2         -8.3386    2.1319   52.7255 C.2     1  ZINC000826435081    0.7200
      3 N3         -7.2365    2.6765   52.1731 N.am    1  ZINC000826435081   -0.7300
      4 C4         -7.2441    3.0747   50.7633 C.3     1  ZINC000826435081    0.1500
      5 C5         -6.1737    2.2872   50.0052 C.3     1  ZINC000826435081    0.0400
      6 H6         -6.5334    2.0559   49.0025 H       1  ZINC000826435081    0.0800
      7 C7         -5.8701    0.9856   50.7528 C.3     1  ZINC000826435081    0.0300
      8 O8         -4.7915    0.3096   50.0995 O.3     1  ZINC000826435081   -0.3800
      9 C9         -3.5957    1.0904   50.0116 C.3     1  ZINC000826435081    0.0200
     10 C10        -3.8994    2.3920   49.2639 C.3     1  ZINC000826435081    0.0200
     11 O11        -4.9785    3.0685   49.9159 O.3     1  ZINC000826435081   -0.3700
     12 N12        -8.3317    1.7655   54.0225 N.am    1  ZINC000826435081   -0.6400
     13 C13        -9.4774    1.1993   54.5968 C.2     1  ZINC000826435081    0.3300
     14 N14        -9.5959   -0.0379   55.0179 N.2     1  ZINC000826435081   -0.2800
     15 N15       -10.8917   -0.2066   55.5225 N.pl3   1  ZINC000826435081   -0.3300
     16 C16       -11.4163   -1.3840   56.0672 C.ar    1  ZINC000826435081    0.2200
     17 C17       -11.4430   -1.5633   57.4421 C.ar    1  ZINC000826435081   -0.1300
     18 C18       -11.9612   -2.7262   57.9796 C.ar    1  ZINC000826435081   -0.0500
     19 C19       -12.4556   -3.7183   57.1524 C.ar    1  ZINC000826435081   -0.1500
     20 C20       -12.4359   -3.5542   55.7792 C.ar    1  ZINC000826435081    0.1500
     21 F21       -12.9202   -4.5255   54.9748 F       1  ZINC000826435081   -0.1100
     22 C22       -11.9211   -2.3821   55.2268 C.ar    1  ZINC000826435081   -0.0500
     23 C23       -11.8970   -2.1998   53.7547 C.2     1  ZINC000826435081    0.2100
     24 N24       -11.0012   -2.6819   52.9159 N.2     1  ZINC000826435081   -0.2800
     25 N25       -11.3295   -2.3038   51.7285 N.pl3   1  ZINC000826435081   -0.2300
     26 N26       -12.4043   -1.5979   51.7879 N.2     1  ZINC000826435081   -0.0500
     27 N27       -12.7852   -1.5175   53.0175 N.2     1  ZINC000826435081   -0.2300
     28 C28       -11.5489    0.9744   55.3899 C.2     1  ZINC000826435081    0.0700
     29 C29       -10.6957    1.8598   54.8267 C.2     1  ZINC000826435081   -0.2400
     30 H30        -6.4382    2.8049   52.7091 H       1  ZINC000826435081    0.4000
     31 H31        -8.2230    2.8654   50.3319 H       1  ZINC000826435081    0.0800
     32 H32        -7.0334    4.1414   50.6858 H       1  ZINC000826435081    0.0900
     33 H33        -5.5879    1.2133   51.7807 H       1  ZINC000826435081    0.0700
     34 H34        -6.7545    0.3486   50.7494 H       1  ZINC000826435081    0.1100
     35 H35        -3.2371    1.3218   51.0146 H       1  ZINC000826435081    0.0600
     36 H36        -2.8332    0.5294   49.4713 H       1  ZINC000826435081    0.1100
     37 H37        -3.0149    3.0289   49.2673 H       1  ZINC000826435081    0.1100
     38 H38        -4.1816    2.1642   48.2360 H       1  ZINC000826435081    0.0600
     39 H39        -7.5334    1.8938   54.5584 H       1  ZINC000826435081    0.4100
     40 H40       -11.0580   -0.7929   58.0938 H       1  ZINC000826435081    0.1500
     41 H41       -11.9798   -2.8612   59.0510 H       1  ZINC000826435081    0.1500
     42 H42       -12.8582   -4.6246   57.5803 H       1  ZINC000826435081    0.1500
     43 H43       -10.8429   -2.5177   50.9170 H       1  ZINC000826435081    0.4800
     44 H44       -12.5687    1.1726   55.6855 H       1  ZINC000826435081    0.1800
     45 H45       -10.9146    2.8902   54.5889 H       1  ZINC000826435081    0.1800
@<TRIPOS>BOND
     1     1     2    2
     2     2     3   am
     3     2    12   am
     4     3     4    1
     5     3    30    1
     6     4     5    1
     7     4    31    1
     8     4    32    1
     9     5     6    1
    10     5    11    1
    11     5     7    1
    12     7     8    1
    13     7    33    1
    14     7    34    1
    15     8     9    1
    16     9    10    1
    17     9    35    1
    18     9    36    1
    19    10    11    1
    20    10    37    1
    21    10    38    1
    22    12    13    1
    23    12    39    1
    24    13    29    1
    25    13    14    2
    26    14    15    1
    27    15    16    1
    28    15    28    1
    29    16    22   ar
    30    16    17   ar
    31    17    18   ar
    32    17    40    1
    33    18    19   ar
    34    18    41    1
    35    19    20   ar
    36    19    42    1
    37    20    21    1
    38    20    22   ar
    39    22    23    1
    40    23    27    1
    41    23    24    2
    42    24    25    1
    43    25    26    1
    44    25    43    1
    45    26    27    2
    46    28    29    2
    47    28    44    1
    48    29    45    1
@<TRIPOS>SUBSTRUCTURE
     1 ZINC000826435081        1 TEMP              0 ****  ****    0 ROOT


##########                                Name:    ZINC000428748914
##########                DOCK_Rotatable_Bonds:                  11
##########                         Heavy_Atoms:                  30
##########                    Molecular_Weight:             413.492
##########                DOCK_Rotatable_Bonds:                  11
##########                       Formal_Charge:           0.0199993
##########                     HBond_Acceptors:                   7
##########                        HBond_Donors:                   3
##########                         Heavy_Atoms:                  30
##########                          Grid_Score:          -37.297863
##########                     Grid_vdw_energy:          -35.386669
##########                      Grid_es_energy:           -1.911194
##########           Internal_energy_repulsive:           18.028296

@<TRIPOS>MOLECULE
ZINC000428748914
 58 61 1 0 0
SMALL
USER_CHARGES


@<TRIPOS>ATOM
      1 O1         -9.0971    3.4217   49.8123 O.2     1  ZINC000428748914   -0.5900
      2 C2         -8.9221    2.9267   50.9090 C.2     1  ZINC000428748914    0.7000
      3 N3         -9.9168    2.9343   51.8183 N.am    1  ZINC000428748914   -0.7400
      4 C4        -11.2071    3.5442   51.4873 C.3     1  ZINC000428748914    0.1900
      5 C5        -11.9684    2.6355   50.5569 C.ar    1  ZINC000428748914   -0.2000
      6 C6        -12.1837    3.0047   49.2365 C.ar    1  ZINC000428748914   -0.0200
      7 C7        -12.8878    2.1405   48.4159 C.ar    1  ZINC000428748914   -0.1900
      8 C8        -13.3523    0.9405   48.9382 C.ar    1  ZINC000428748914    0.3300
      9 O9        -14.0434    0.0846   48.1439 O.3     1  ZINC000428748914   -0.3000
     10 C10       -14.4807   -1.1402   48.7361 C.3     1  ZINC000428748914    0.0800
     11 C11       -15.5211   -0.8629   49.8495 C.3     1  ZINC000428748914   -0.1400
     12 C12       -16.2975   -2.2006   49.9326 C.3     1  ZINC000428748914   -0.1200
     13 C13       -16.4030   -2.6685   48.4664 C.3     1  ZINC000428748914   -0.1200
     14 C14       -15.2478   -1.9943   47.7057 C.3     1  ZINC000428748914   -0.1200
     15 N15       -13.1269    0.6236   50.2026 N.ar    1  ZINC000428748914   -0.5400
     16 C16       -12.4542    1.4239   51.0074 C.ar    1  ZINC000428748914    0.1600
     17 N17        -7.7351    2.3656   51.2135 N.am    1  ZINC000428748914   -0.7400
     18 C18        -6.6538    2.3572   50.2251 C.3     1  ZINC000428748914    0.1800
     19 C19        -5.3091    2.2170   50.9415 C.3     1  ZINC000428748914   -0.1300
     20 C20        -4.8115    0.7834   51.1363 C.3     1  ZINC000428748914    0.1100
     21 O21        -4.7085    0.1380   49.8654 O.3     1  ZINC000428748914   -0.5700
     22 C22        -4.9834    3.2334   52.0377 C.3     1  ZINC000428748914   -0.1400
     23 C23        -4.2592    3.3014   50.6917 C.3     1  ZINC000428748914   -0.1000
     24 H24        -4.5263    4.1147   50.0170 H       1  ZINC000428748914    0.1200
     25 C25        -2.8137    2.8763   50.6570 C.ar    1  ZINC000428748914   -0.0700
     26 C26        -1.9753    3.1927   51.7097 C.ar    1  ZINC000428748914   -0.0900
     27 C27        -0.6497    2.8034   51.6791 C.ar    1  ZINC000428748914   -0.1500
     28 C28        -0.1615    2.0957   50.5937 C.ar    1  ZINC000428748914    0.1000
     29 F29         1.1342    1.7142   50.5629 F       1  ZINC000428748914   -0.1400
     30 C30        -1.0023    1.7789   49.5402 C.ar    1  ZINC000428748914   -0.1500
     31 C31        -2.3287    2.1652   49.5753 C.ar    1  ZINC000428748914   -0.0800
     32 H32        -9.7786    2.5359   52.6919 H       1  ZINC000428748914    0.4000
     33 H33       -11.7831    3.6942   52.4006 H       1  ZINC000428748914    0.0800
     34 H34       -11.0406    4.5053   51.0009 H       1  ZINC000428748914    0.0800
     35 H35       -11.8108    3.9449   48.8580 H       1  ZINC000428748914    0.1400
     36 H36       -13.0740    2.3963   47.3832 H       1  ZINC000428748914    0.1400
     37 H37       -13.6312   -1.6949   49.1345 H       1  ZINC000428748914    0.1000
     38 H38       -15.0256   -0.6444   50.7955 H       1  ZINC000428748914    0.0700
     39 H39       -16.1856   -0.0478   49.5630 H       1  ZINC000428748914    0.0800
     40 H40       -15.7428   -2.9273   50.5261 H       1  ZINC000428748914    0.0700
     41 H41       -17.2898   -2.0402   50.3542 H       1  ZINC000428748914    0.0700
     42 H42       -16.3032   -3.7526   48.4124 H       1  ZINC000428748914    0.0700
     43 H43       -17.3590   -2.3596   48.0438 H       1  ZINC000428748914    0.0700
     44 H44       -15.6432   -1.3582   46.9138 H       1  ZINC000428748914    0.0800
     45 H45       -14.5874   -2.7512   47.2824 H       1  ZINC000428748914    0.0700
     46 H46       -12.2892    1.1318   52.0340 H       1  ZINC000428748914    0.1600
     47 H47        -7.5968    1.9672   52.0870 H       1  ZINC000428748914    0.3900
     48 H48        -6.7914    1.5183   49.5430 H       1  ZINC000428748914    0.0700
     49 H49        -6.6696    3.2901   49.6614 H       1  ZINC000428748914    0.0900
     50 H50        -3.8327    0.8005   51.6155 H       1  ZINC000428748914    0.0500
     51 H51        -5.5144    0.2371   51.7652 H       1  ZINC000428748914    0.0600
     52 H52        -3.9339   -0.4338   49.7763 H       1  ZINC000428748914    0.3800
     53 H53        -5.7270    4.0020   52.2485 H       1  ZINC000428748914    0.1100
     54 H54        -4.4146    2.8809   52.8981 H       1  ZINC000428748914    0.1100
     55 H55        -2.3564    3.7447   52.5562 H       1  ZINC000428748914    0.1400
     56 H56         0.0053    3.0513   52.5011 H       1  ZINC000428748914    0.1400
     57 H57        -0.6225    1.2272   48.6929 H       1  ZINC000428748914    0.1400
     58 H58        -2.9848    1.9179   48.7538 H       1  ZINC000428748914    0.1300
@<TRIPOS>BOND
     1     1     2    2
     2     2     3   am
     3     2    17   am
     4     3     4    1
     5     3    32    1
     6     4     5    1
     7     4    33    1
     8     4    34    1
     9     5    16   ar
    10     5     6   ar
    11     6     7   ar
    12     6    35    1
    13     7     8   ar
    14     7    36    1
    15     8     9    1
    16     8    15   ar
    17     9    10    1
    18    10    14    1
    19    10    11    1
    20    10    37    1
    21    11    12    1
    22    11    38    1
    23    11    39    1
    24    12    13    1
    25    12    40    1
    26    12    41    1
    27    13    14    1
    28    13    42    1
    29    13    43    1
    30    14    44    1
    31    14    45    1
    32    15    16   ar
    33    16    46    1
    34    17    18    1
    35    17    47    1
    36    18    19    1
    37    18    48    1
    38    18    49    1
    39    19    23    1
    40    19    20    1
    41    19    22    1
    42    20    21    1
    43    20    50    1
    44    20    51    1
    45    21    52    1
    46    22    23    1
    47    22    53    1
    48    22    54    1
    49    23    24    1
    50    23    25    1
    51    25    31   ar
    52    25    26   ar
    53    26    27   ar
    54    26    55    1
    55    27    28   ar
    56    27    56    1
    57    28    29    1
    58    28    30   ar
    59    30    31   ar
    60    30    57    1
    61    31    58    1
@<TRIPOS>SUBSTRUCTURE
     1 ZINC000428748914        1 TEMP              0 ****  ****    0 ROOT


##########                                Name:     oleObject17.pdb
##########                DOCK_Rotatable_Bonds:                   8
##########                         Heavy_Atoms:                  29
##########                    Molecular_Weight:             435.393
##########                DOCK_Rotatable_Bonds:                   8
##########                       Formal_Charge:         0.000400059
##########                     HBond_Acceptors:                   6
##########                        HBond_Donors:                   0
##########                         Heavy_Atoms:                  29
##########                          Grid_Score:          -37.288990
##########                     Grid_vdw_energy:          -36.981224
##########                      Grid_es_energy:           -0.307766
##########           Internal_energy_repulsive:           25.232698

@<TRIPOS>MOLECULE
oleObject17.pdb
 57 59 1 0 0
SMALL
NO_CHARGES


@<TRIPOS>ATOM
      1 C         -15.9861   -1.1839   51.8269 C.3     1  UNL         0.0391
      2 C         -15.6651   -1.1545   50.3311 C.ar    1  UNL        -0.0277
      3 C         -15.2474    0.0216   49.6585 C.ar    1  UNL        -0.0463
      4 C         -15.0016   -0.0240   48.2720 C.ar    1  UNL        -0.0590
      5 C         -15.1620   -1.2178   47.5537 C.ar    1  UNL        -0.0620
      6 C         -15.5576   -2.3850   48.2201 C.ar    1  UNL        -0.0619
      7 C         -15.8013   -2.3518   49.6011 C.ar    1  UNL        -0.0572
      8 C         -15.0457    1.3455   50.3875 C.3     1  UNL        -0.0394
      9 N         -14.9194   -1.8219   52.6279 N.am    1  UNL        -0.3003
     10 C         -13.5989   -1.8441   52.1795 C.2     1  UNL         0.2175
     11 O         -13.2454   -1.0837   51.2943 O.2     1  UNL        -0.2772
     12 C         -12.5629   -2.5403   53.1011 C.3     1  UNL         0.0384
     13 C         -12.2516   -1.7198   54.3783 C.3     1  UNL        -0.0289
     14 C         -11.4619   -0.4389   54.0461 C.3     1  UNL        -0.0010
     15 N         -10.2011   -0.7398   53.3331 N.4     1  UNL        -0.3010
     16 C         -10.3653   -1.5801   52.1237 C.3     1  UNL        -0.0010
     17 C         -11.2215   -2.8470   52.3806 C.3     1  UNL        -0.0289
     18 C          -9.3487    0.4522   53.1203 C.3     1  UNL         0.0222
     19 C          -7.9461    0.1193   52.5605 C.3     1  UNL         0.0661
     20 O          -7.6258    1.0798   51.5399 O.3     1  UNL        -0.3432
     21 C          -6.3453    1.2546   51.0509 C.ar    1  UNL         0.0937
     22 C          -5.6019    0.1852   50.5062 C.ar    1  UNL        -0.0288
     23 C          -4.3058    0.4047   50.0114 C.ar    1  UNL        -0.0408
     24 C          -3.7435    1.6899   50.0596 C.ar    1  UNL         0.0422
     25 C          -4.4746    2.7577   50.6033 C.ar    1  UNL        -0.0221
     26 C          -5.7716    2.5413   51.0982 C.ar    1  UNL         0.0723
     27 CL         -6.6602    3.8980   51.7656 Cl      1  UNL        -0.0814
     28 CL         -2.1282    1.9606   49.4414 Cl      1  UNL        -0.0843
     29 C         -15.3401   -2.4290   53.9039 C.3     1  UNL         0.0031
     30 H         -16.9245   -1.7157   52.0194 H       1  UNL         0.0520
     31 H         -16.1360   -0.1516   52.1671 H       1  UNL         0.0520
     32 H         -14.6847    0.8710   47.7443 H       1  UNL         0.0626
     33 H         -14.9730   -1.2389   46.4840 H       1  UNL         0.0623
     34 H         -15.6771   -3.3129   47.6684 H       1  UNL         0.0623
     35 H         -16.1118   -3.2615   50.1064 H       1  UNL         0.0626
     36 H         -14.3577    1.2312   51.2341 H       1  UNL         0.0280
     37 H         -15.9951    1.7383   50.7687 H       1  UNL         0.0280
     38 H         -14.6188    2.1107   49.7275 H       1  UNL         0.0280
     39 H         -12.9956   -3.5004   53.4063 H       1  UNL         0.0402
     40 H         -11.6565   -2.3344   55.0662 H       1  UNL         0.0288
     41 H         -13.1693   -1.4588   54.9157 H       1  UNL         0.0288
     42 H         -11.2450    0.0972   54.9790 H       1  UNL         0.0431
     43 H         -12.0963    0.2076   53.4292 H       1  UNL         0.0431
     44 H          -9.3794   -1.8911   51.7552 H       1  UNL         0.0431
     45 H         -10.8347   -0.9930   51.3264 H       1  UNL         0.0431
     46 H         -10.6379   -3.5379   53.0027 H       1  UNL         0.0288
     47 H         -11.4111   -3.3670   51.4328 H       1  UNL         0.0288
     48 H          -9.2305    0.9922   54.0684 H       1  UNL         0.0455
     49 H          -9.8498    1.1331   52.4203 H       1  UNL         0.0455
     50 H          -7.9458   -0.8872   52.1268 H       1  UNL         0.0586
     51 H          -7.2014    0.1600   53.3645 H       1  UNL         0.0586
     52 H          -6.0149   -0.8173   50.4619 H       1  UNL         0.0651
     53 H          -3.7388   -0.4220   49.5924 H       1  UNL         0.0639
     54 H          -4.0381    3.7517   50.6404 H       1  UNL         0.0655
     55 H         -16.3506   -2.8466   53.8107 H       1  UNL         0.0433
     56 H         -15.3401   -1.6735   54.6988 H       1  UNL         0.0433
     57 H         -14.6592   -3.2439   54.1787 H       1  UNL         0.0433
@<TRIPOS>BOND
     1     1     2    1
     2     1     9    1
     3     1    30    1
     4     1    31    1
     5     2     3   ar
     6     2     7   ar
     7     3     4   ar
     8     3     8    1
     9     4     5   ar
    10     4    32    1
    11     5     6   ar
    12     5    33    1
    13     6     7   ar
    14     6    34    1
    15     7    35    1
    16     8    36    1
    17     8    37    1
    18     8    38    1
    19     9    10   am
    20     9    29    1
    21    10    11    2
    22    10    12    1
    23    12    13    1
    24    12    17    1
    25    12    39    1
    26    13    14    1
    27    13    40    1
    28    13    41    1
    29    14    15    1
    30    14    42    1
    31    14    43    1
    32    15    16    1
    33    15    18    1
    34    16    17    1
    35    16    44    1
    36    16    45    1
    37    17    46    1
    38    17    47    1
    39    18    19    1
    40    18    48    1
    41    18    49    1
    42    19    20    1
    43    19    50    1
    44    19    51    1
    45    20    21    1
    46    21    22   ar
    47    21    26   ar
    48    22    23   ar
    49    22    52    1
    50    23    24   ar
    51    23    53    1
    52    24    25   ar
    53    24    28    1
    54    25    26   ar
    55    25    54    1
    56    26    27    1
    57    29    55    1
    58    29    56    1
    59    29    57    1
@<TRIPOS>SUBSTRUCTURE
     1 UNL         1 TEMP              0 ****  ****    0 ROOT


##########                                Name:    ZINC000561219098
##########                DOCK_Rotatable_Bonds:                   4
##########                         Heavy_Atoms:                  28
##########                    Molecular_Weight:             423.273
##########                DOCK_Rotatable_Bonds:                   4
##########                       Formal_Charge:          0.00999953
##########                     HBond_Acceptors:                   9
##########                        HBond_Donors:                   1
##########                         Heavy_Atoms:                  28
##########                          Grid_Score:          -37.279144
##########                     Grid_vdw_energy:          -37.347572
##########                      Grid_es_energy:            0.068429
##########           Internal_energy_repulsive:           17.177164

@<TRIPOS>MOLECULE
ZINC000561219098
 45 48 1 0 0
SMALL
USER_CHARGES


@<TRIPOS>ATOM
      1 C1         -4.5046    0.0289   50.1248 C.3     1  ZINC000561219098    0.0700
      2 N2         -5.6087    0.4757   50.9777 N.pl3   1  ZINC000561219098   -0.4500
      3 C3         -5.6305    1.6284   51.7067 C.2     1  ZINC000561219098   -0.0100
      4 C4         -6.8048    1.6979   52.3614 C.2     1  ZINC000561219098   -0.1700
      5 C5         -7.5460    0.5372   52.0246 C.2     1  ZINC000561219098   -0.1100
      6 C6         -8.9042    0.1854   52.5118 C.2     1  ZINC000561219098    0.1600
      7 N7         -9.7093    0.9796   53.1866 N.2     1  ZINC000561219098   -0.2700
      8 N8        -10.8948    0.2875   53.4629 N.pl3   1  ZINC000561219098   -0.4700
      9 C9        -10.7842   -0.9664   52.9291 C.2     1  ZINC000561219098    0.0300
     10 C10       -11.7993   -2.0309   52.9837 C.2     1  ZINC000561219098    0.5900
     11 O11       -12.4583   -2.2941   51.9960 O.2     1  ZINC000561219098   -0.5000
     12 N12       -11.9984   -2.7139   54.1284 N.am    1  ZINC000561219098   -0.6100
     13 C13       -13.0073   -3.7822   54.2074 C.3     1  ZINC000561219098    0.0500
     14 C14       -13.8893   -3.5246   55.4345 C.3     1  ZINC000561219098    0.0500
     15 O15       -13.0573   -3.3508   56.5840 O.3     1  ZINC000561219098   -0.3700
     16 C16       -12.1826   -2.2226   56.5082 C.3     1  ZINC000561219098    0.1200
     17 H17       -12.7688   -1.3171   56.3519 H       1  ZINC000561219098    0.0900
     18 C18       -11.4035   -2.1025   57.7925 C.ar    1  ZINC000561219098   -0.0500
     19 C19       -11.2846   -0.8750   58.4160 C.ar    1  ZINC000561219098   -0.1000
     20 C20       -10.5694   -0.7644   59.5962 C.ar    1  ZINC000561219098    0.1200
     21 F21       -10.4533    0.4354   60.2062 F       1  ZINC000561219098   -0.1200
     22 C22        -9.9731   -1.8849   60.1515 C.ar    1  ZINC000561219098   -0.0600
     23 Cl23       -9.0763   -1.7478   61.6317 Cl      1  ZINC000561219098   -0.0300
     24 C24       -10.0929   -3.1128   59.5264 C.ar    1  ZINC000561219098   -0.0700
     25 C25       -10.8123   -3.2226   58.3501 C.ar    1  ZINC000561219098   -0.0300
     26 Cl26      -10.9630   -4.7641   57.5660 Cl      1  ZINC000561219098   -0.0400
     27 C27       -11.2092   -2.4174   55.3345 C.3     1  ZINC000561219098    0.0900
     28 C28        -9.5480   -1.0463   52.3253 C.2     1  ZINC000561219098   -0.1700
     29 C29        -6.7821   -0.1900   51.1666 C.2     1  ZINC000561219098    0.0300
     30 H30        -4.6434    0.4194   49.1165 H       1  ZINC000561219098    0.0800
     31 H31        -3.5613    0.3954   50.5298 H       1  ZINC000561219098    0.0900
     32 H32        -4.4876   -1.0605   50.0933 H       1  ZINC000561219098    0.0900
     33 H33        -4.8389    2.3618   51.7512 H       1  ZINC000561219098    0.1700
     34 H34        -7.1234    2.4913   53.0213 H       1  ZINC000561219098    0.1400
     35 H35       -11.6592    0.6359   53.9479 H       1  ZINC000561219098    0.4400
     36 H36       -13.6207   -3.7753   53.3063 H       1  ZINC000561219098    0.1000
     37 H37       -12.5121   -4.7481   54.3075 H       1  ZINC000561219098    0.0900
     38 H38       -14.4818   -2.6238   55.2742 H       1  ZINC000561219098    0.0700
     39 H39       -14.5531   -4.3749   55.5907 H       1  ZINC000561219098    0.1200
     40 H40       -11.7495   -0.0019   57.9823 H       1  ZINC000561219098    0.1600
     41 H41        -9.6280   -3.9865   59.9586 H       1  ZINC000561219098    0.1600
     42 H42       -10.5342   -3.2454   55.5509 H       1  ZINC000561219098    0.0900
     43 H43       -10.6337   -1.5047   55.1795 H       1  ZINC000561219098    0.1100
     44 H44        -9.1451   -1.9047   51.8083 H       1  ZINC000561219098    0.1600
     45 H45        -7.0551   -1.1342   50.7188 H       1  ZINC000561219098    0.1700
@<TRIPOS>BOND
     1     1     2    1
     2     1    30    1
     3     1    31    1
     4     1    32    1
     5     2    29    1
     6     2     3    1
     7     3     4    2
     8     3    33    1
     9     4     5    1
    10     4    34    1
    11     5     6    1
    12     5    29    2
    13     6    28    1
    14     6     7    2
    15     7     8    1
    16     8     9    1
    17     8    35    1
    18     9    10    1
    19     9    28    2
    20    10    11    2
    21    10    12   am
    22    12    27    1
    23    12    13    1
    24    13    14    1
    25    13    36    1
    26    13    37    1
    27    14    15    1
    28    14    38    1
    29    14    39    1
    30    15    16    1
    31    16    17    1
    32    16    18    1
    33    16    27    1
    34    18    25   ar
    35    18    19   ar
    36    19    20   ar
    37    19    40    1
    38    20    21    1
    39    20    22   ar
    40    22    23    1
    41    22    24   ar
    42    24    25   ar
    43    24    41    1
    44    25    26    1
    45    27    42    1
    46    27    43    1
    47    28    44    1
    48    29    45    1
@<TRIPOS>SUBSTRUCTURE
     1 ZINC000561219098        1 TEMP              0 ****  ****    0 ROOT


##########                                Name:    ZINC000328606936
##########                DOCK_Rotatable_Bonds:                   6
##########                         Heavy_Atoms:                  23
##########                    Molecular_Weight:             338.428
##########                DOCK_Rotatable_Bonds:                   6
##########                       Formal_Charge:           0.0100001
##########                     HBond_Acceptors:                   7
##########                        HBond_Donors:                   2
##########                         Heavy_Atoms:                  23
##########                          Grid_Score:          -37.244835
##########                     Grid_vdw_energy:          -31.352539
##########                      Grid_es_energy:           -5.892296
##########           Internal_energy_repulsive:           17.080463

@<TRIPOS>MOLECULE
ZINC000328606936
 45 47 1 0 0
SMALL
USER_CHARGES


@<TRIPOS>ATOM
      1 C1          0.1800    2.0924   49.0034 C.3     1  <0>        -0.0500
      2 N2         -0.4275    3.0324   49.9548 N.4     1  <0>        -0.3500
      3 H3         -0.7778    3.8366   49.4561 H       1  <0>         0.4200
      4 C4          0.5829    3.4632   50.9303 C.3     1  <0>        -0.0900
      5 C5          1.3438    2.2619   51.4292 C.2     1  <0>         0.4900
      6 O6          0.7811    1.1857   51.5373 O.co2   1  <0>        -0.6700
      7 O7          2.5221    2.3662   51.7245 O.co2   1  <0>        -0.6400
      8 C8         -1.5354    2.3710   50.6571 C.3     1  <0>         0.0100
      9 H9         -1.1496    1.6470   51.3748 H       1  <0>         0.1600
     10 C10        -2.4735    1.6771   49.6462 C.3     1  <0>         0.1000
     11 N11        -3.8331    1.8772   50.1995 N.am    1  <0>        -0.6200
     12 C12        -4.8549    0.9987   50.2201 C.2     1  <0>         0.6200
     13 O13        -4.7123   -0.1119   49.7432 O.2     1  <0>        -0.5100
     14 C14        -6.1381    1.3809   50.8167 C.2     1  <0>        -0.2800
     15 C15        -6.7065    0.7980   51.9076 C.2     1  <0>        -0.0300
     16 C16        -7.9235    1.3451   52.2704 C.2     1  <0>        -0.1200
     17 C17        -8.3274    2.3609   51.4742 C.2     1  <0>        -0.1900
     18 C18        -9.6228    3.1289   51.6577 C.3     1  <0>        -0.0500
     19 C19       -10.5456    2.3249   52.5772 C.3     1  <0>        -0.1200
     20 C20        -9.7671    1.9168   53.8313 C.3     1  <0>        -0.1200
     21 C21        -8.7369    0.8490   53.4590 C.3     1  <0>        -0.0600
     22 S22        -7.1848    2.6690   50.2432 S.3     1  <0>         0.2000
     23 C23        -3.8146    3.2622   50.7252 C.3     1  <0>         0.0600
     24 C24        -2.4179    3.4159   51.3709 C.3     1  <0>         0.0800
     25 H25        -2.0298    4.4199   51.1996 H       1  <0>         0.1000
     26 O26        -2.4855    3.1426   52.7719 O.3     1  <0>        -0.5400
     27 H27         0.5584    1.2238   49.5421 H       1  <0>         0.1100
     28 H28        -0.5698    1.7728   48.2796 H       1  <0>         0.1100
     29 H29         1.0020    2.5833   48.4823 H       1  <0>         0.1600
     30 H30         1.2739    4.1590   50.4545 H       1  <0>         0.1200
     31 H31         0.0912    3.9559   51.7692 H       1  <0>         0.1300
     32 H32        -2.3894    2.1459   48.6658 H       1  <0>         0.1000
     33 H33        -2.2424    0.6139   49.5810 H       1  <0>         0.1200
     34 H34        -6.2475   -0.0203   52.4425 H       1  <0>         0.1500
     35 H35        -9.4122    4.0987   52.1084 H       1  <0>         0.0900
     36 H36       -10.1041    3.2702   50.6899 H       1  <0>         0.0800
     37 H37       -11.4008    2.9377   52.8621 H       1  <0>         0.0700
     38 H38       -10.8920    1.4322   52.0564 H       1  <0>         0.0700
     39 H39        -9.2571    2.7878   54.2428 H       1  <0>         0.0700
     40 H40       -10.4569    1.5139   54.5729 H       1  <0>         0.0700
     41 H41        -9.2490   -0.0754   53.1919 H       1  <0>         0.0800
     42 H42        -8.0738    0.6702   54.3054 H       1  <0>         0.0800
     43 H43        -3.9399    3.9786   49.9134 H       1  <0>         0.1000
     44 H44        -4.5953    3.3949   51.4743 H       1  <0>         0.1000
     45 H45        -2.8130    2.2579   52.9847 H       1  <0>         0.4000
@<TRIPOS>BOND
     1     1     2    1
     2     1    27    1
     3     1    28    1
     4     1    29    1
     5     2     3    1
     6     2     4    1
     7     2     8    1
     8     4     5    1
     9     4    30    1
    10     4    31    1
    11     5     6   ar
    12     5     7   ar
    13     8     9    1
    14     8    24    1
    15     8    10    1
    16    10    11    1
    17    10    32    1
    18    10    33    1
    19    11    12   am
    20    11    23    1
    21    12    13    2
    22    12    14    1
    23    14    22    1
    24    14    15    2
    25    15    16    1
    26    15    34    1
    27    16    21    1
    28    16    17    2
    29    17    18    1
    30    17    22    1
    31    18    19    1
    32    18    35    1
    33    18    36    1
    34    19    20    1
    35    19    37    1
    36    19    38    1
    37    20    21    1
    38    20    39    1
    39    20    40    1
    40    21    41    1
    41    21    42    1
    42    23    24    1
    43    23    43    1
    44    23    44    1
    45    24    25    1
    46    24    26    1
    47    26    45    1
@<TRIPOS>SUBSTRUCTURE
     1 <0>         1 TEMP              0 ****  ****    0 ROOT


##########                                Name:    ZINC001284642199
##########                DOCK_Rotatable_Bonds:                   8
##########                         Heavy_Atoms:                  25
##########                    Molecular_Weight:             346.516
##########                DOCK_Rotatable_Bonds:                   8
##########                       Formal_Charge:         -3.8743e-07
##########                     HBond_Acceptors:                   5
##########                        HBond_Donors:                   2
##########                         Heavy_Atoms:                  25
##########                          Grid_Score:          -37.230274
##########                     Grid_vdw_energy:          -36.369602
##########                      Grid_es_energy:           -0.860673
##########           Internal_energy_repulsive:           18.611116

@<TRIPOS>MOLECULE
ZINC001284642199
 59 60 1 0 0
SMALL
USER_CHARGES


@<TRIPOS>ATOM
      1 C1         -6.1412    1.4335   52.0628 C.3     1  ZINC001284642199   -0.1100
      2 C2         -7.4375    0.6939   52.2715 C.ar    1  ZINC001284642199   -0.1900
      3 C3         -7.5723   -0.6275   51.8758 C.ar    1  ZINC001284642199    0.1500
      4 N4         -8.7256   -1.2449   52.0756 N.ar    1  ZINC001284642199   -0.4900
      5 C5         -9.7373   -0.6186   52.6427 C.ar    1  ZINC001284642199    0.3100
      6 C6        -11.0336   -1.3583   52.8514 C.3     1  ZINC001284642199    0.1300
      7 N7        -11.0119   -2.0246   54.1603 N.3     1  ZINC001284642199   -0.6800
      8 C8        -12.2683   -2.7453   54.4051 C.3     1  ZINC001284642199    0.0500
      9 C9        -12.1971   -3.4481   55.7623 C.3     1  ZINC001284642199    0.1600
     10 H10       -11.4906   -4.2763   55.7060 H       1  ZINC001284642199    0.1000
     11 N11       -11.7528   -2.4956   56.7827 N.am    1  ZINC001284642199   -0.7200
     12 C12       -10.8010   -2.8516   57.6680 C.2     1  ZINC001284642199    0.5200
     13 O13       -10.3112   -3.9600   57.6190 O.2     1  ZINC001284642199   -0.5300
     14 C14       -10.3451   -1.8723   58.7189 C.3     1  ZINC001284642199   -0.1100
     15 H15        -9.5783   -1.2207   58.3000 H       1  ZINC001284642199    0.0900
     16 C16       -11.5352   -1.0284   59.1800 C.3     1  ZINC001284642199   -0.1000
     17 C17       -11.0724   -0.0342   60.2469 C.3     1  ZINC001284642199   -0.1100
     18 C18       -10.4961   -0.7984   61.4405 C.3     1  ZINC001284642199   -0.0900
     19 H19       -11.2631   -1.4500   61.8594 H       1  ZINC001284642199    0.0700
     20 C20       -10.0333    0.1959   62.5074 C.3     1  ZINC001284642199   -0.1500
     21 C21        -9.3062   -1.6423   60.9794 C.3     1  ZINC001284642199   -0.1100
     22 C22        -9.7689   -2.6365   59.9126 C.3     1  ZINC001284642199   -0.1100
     23 C23       -13.5818   -3.9833   56.1327 C.3     1  ZINC001284642199   -0.0800
     24 C24       -14.5162   -2.8115   56.4398 C.3     1  ZINC001284642199   -0.1400
     25 C25       -14.1456   -4.7922   54.9628 C.3     1  ZINC001284642199   -0.1400
     26 C26       -13.4681   -4.8817   57.3660 C.3     1  ZINC001284642199   -0.1300
     27 N27        -9.6471    0.6387   53.0272 N.ar    1  ZINC001284642199   -0.5100
     28 C28        -8.5235    1.3186   52.8643 C.ar    1  ZINC001284642199    0.1500
     29 H29        -6.1543    1.9218   51.0884 H       1  ZINC001284642199    0.0800
     30 H30        -6.0214    2.1843   52.8438 H       1  ZINC001284642199    0.0700
     31 H31        -5.3102    0.7294   52.1051 H       1  ZINC001284642199    0.0700
     32 H32        -6.7474   -1.1463   51.4102 H       1  ZINC001284642199    0.1700
     33 H33       -11.1569   -2.1041   52.0661 H       1  ZINC001284642199    0.1000
     34 H34       -11.8639   -0.6531   52.8164 H       1  ZINC001284642199    0.0600
     35 H35       -10.8243   -1.3637   54.8994 H       1  ZINC001284642199    0.3400
     36 H36       -12.4212   -3.4859   53.6200 H       1  ZINC001284642199    0.0900
     37 H37       -13.0984   -2.0390   54.4049 H       1  ZINC001284642199    0.0400
     38 H38       -12.1436   -1.6086   56.8213 H       1  ZINC001284642199    0.3900
     39 H39       -12.3021   -1.6799   59.5988 H       1  ZINC001284642199    0.0700
     40 H40       -11.9458   -0.4839   58.3297 H       1  ZINC001284642199    0.0700
     41 H41       -11.9202    0.5670   60.5754 H       1  ZINC001284642199    0.0700
     42 H42       -10.3055    0.6175   59.8281 H       1  ZINC001284642199    0.0600
     43 H43       -10.8811    0.7970   62.8359 H       1  ZINC001284642199    0.0500
     44 H44        -9.6228   -0.3486   63.3578 H       1  ZINC001284642199    0.0500
     45 H45        -9.2664    0.8474   62.0886 H       1  ZINC001284642199    0.0500
     46 H46        -8.5392   -0.9907   60.5606 H       1  ZINC001284642199    0.0600
     47 H47        -8.8955   -2.1867   61.8297 H       1  ZINC001284642199    0.0700
     48 H48       -10.5358   -3.2881   60.3314 H       1  ZINC001284642199    0.0700
     49 H49        -8.9212   -3.2377   59.5840 H       1  ZINC001284642199    0.0600
     50 H50       -14.5971   -2.1714   55.5611 H       1  ZINC001284642199    0.0600
     51 H51       -15.5026   -3.1927   56.7037 H       1  ZINC001284642199    0.0600
     52 H52       -14.1145   -2.2352   57.2733 H       1  ZINC001284642199    0.0500
     53 H53       -13.4800   -5.6271   54.7440 H       1  ZINC001284642199    0.0600
     54 H54       -15.1321   -5.1735   55.2266 H       1  ZINC001284642199    0.0600
     55 H55       -14.2266   -4.1522   54.0842 H       1  ZINC001284642199    0.0600
     56 H56       -13.0665   -4.3055   58.1994 H       1  ZINC001284642199    0.0500
     57 H57       -14.4546   -5.2630   57.6299 H       1  ZINC001284642199    0.0500
     58 H58       -12.8025   -5.7166   57.1472 H       1  ZINC001284642199    0.0600
     59 H59        -8.4550    2.3476   53.1851 H       1  ZINC001284642199    0.1700
@<TRIPOS>BOND
     1     1     2    1
     2     1    29    1
     3     1    30    1
     4     1    31    1
     5     2    28   ar
     6     2     3   ar
     7     3     4   ar
     8     3    32    1
     9     4     5   ar
    10     5     6    1
    11     5    27   ar
    12     6     7    1
    13     6    33    1
    14     6    34    1
    15     7     8    1
    16     7    35    1
    17     8     9    1
    18     8    36    1
    19     8    37    1
    20     9    10    1
    21     9    11    1
    22     9    23    1
    23    11    12   am
    24    11    38    1
    25    12    13    2
    26    12    14    1
    27    14    15    1
    28    14    22    1
    29    14    16    1
    30    16    17    1
    31    16    39    1
    32    16    40    1
    33    17    18    1
    34    17    41    1
    35    17    42    1
    36    18    19    1
    37    18    20    1
    38    18    21    1
    39    20    43    1
    40    20    44    1
    41    20    45    1
    42    21    22    1
    43    21    46    1
    44    21    47    1
    45    22    48    1
    46    22    49    1
    47    23    24    1
    48    23    25    1
    49    23    26    1
    50    24    50    1
    51    24    51    1
    52    24    52    1
    53    25    53    1
    54    25    54    1
    55    25    55    1
    56    26    56    1
    57    26    57    1
    58    26    58    1
    59    27    28   ar
    60    28    59    1
@<TRIPOS>SUBSTRUCTURE
     1 ZINC001284642199        1 TEMP              0 ****  ****    0 ROOT


##########                                Name:    ZINC001513543414
##########                DOCK_Rotatable_Bonds:                   6
##########                         Heavy_Atoms:                  26
##########                    Molecular_Weight:             364.488
##########                DOCK_Rotatable_Bonds:                   6
##########                       Formal_Charge:         -0.00999974
##########                     HBond_Acceptors:                   7
##########                        HBond_Donors:                   0
##########                         Heavy_Atoms:                  26
##########                          Grid_Score:          -37.190029
##########                     Grid_vdw_energy:          -36.911377
##########                      Grid_es_energy:           -0.278654
##########           Internal_energy_repulsive:           19.468069

@<TRIPOS>MOLECULE
ZINC001513543414
 58 61 1 0 0
SMALL
USER_CHARGES


@<TRIPOS>ATOM
      1 C1        -12.3772    4.6215   48.4796 C.3     1  ZINC001513543414   -0.1500
      2 C2        -11.4597    3.4901   48.9475 C.3     1  ZINC001513543414   -0.1200
      3 C3        -10.8470    3.8569   50.3005 C.3     1  ZINC001513543414    0.1100
      4 C4         -9.9829    5.1112   50.1559 C.3     1  ZINC001513543414   -0.1500
      5 C5        -11.9675    4.1067   51.3326 C.3     1  ZINC001513543414   -0.1500
      6 C6        -11.3799    3.4651   52.6191 C.3     1  ZINC001513543414   -0.1500
      7 C7        -10.5881    2.2760   52.0194 C.3     1  ZINC001513543414    0.0700
      8 H8        -11.2544    1.4339   51.8318 H       1  ZINC001513543414    0.0800
      9 C9         -9.4596    1.8587   52.9646 C.3     1  ZINC001513543414    0.1100
     10 N10        -8.7780    0.6812   52.4215 N.pl3   1  ZINC001513543414   -0.4600
     11 C11        -9.2413   -0.6052   52.4023 C.2     1  ZINC001513543414    0.1900
     12 C12       -10.5638   -1.0863   52.9413 C.3     1  ZINC001513543414    0.1800
     13 H13       -11.3455   -0.3565   52.7308 H       1  ZINC001513543414    0.1000
     14 C14       -10.9291   -2.4593   52.3230 C.3     1  ZINC001513543414   -0.1500
     15 C15       -11.8734   -3.0324   53.4148 C.3     1  ZINC001513543414   -0.1500
     16 C16       -11.2554   -2.4674   54.7119 C.3     1  ZINC001513543414    0.0500
     17 O17       -10.4697   -1.3224   54.3551 O.3     1  ZINC001513543414   -0.3500
     18 N18        -8.3278   -1.3376   51.8308 N.2     1  ZINC001513543414   -0.2600
     19 N19        -7.3266   -0.6073   51.4903 N.2     1  ZINC001513543414   -0.3100
     20 C20        -7.5516    0.6415   51.8244 C.2     1  ZINC001513543414    0.3400
     21 N21        -6.7009    1.7158   51.6178 N.3     1  ZINC001513543414   -0.4500
     22 C22        -6.8073    2.2168   50.2310 C.3     1  ZINC001513543414    0.0500
     23 C23        -5.3801    2.7028   49.8753 C.3     1  ZINC001513543414   -0.1500
     24 C24        -4.5011    1.6421   50.5888 C.3     1  ZINC001513543414    0.0700
     25 H25        -4.4021    0.7471   49.9745 H       1  ZINC001513543414    0.0800
     26 O26        -3.2156    2.1808   50.9044 O.3     1  ZINC001513543414   -0.3800
     27 C27        -2.4887    2.6536   49.7686 C.3     1  ZINC001513543414    0.0300
     28 C28        -5.2992    1.3365   51.8737 C.3     1  ZINC001513543414    0.0600
     29 O29       -10.0485    2.7699   50.7831 O.3     1  ZINC001513543414   -0.3600
     30 H30       -12.8138    4.3601   47.5157 H       1  ZINC001513543414    0.0500
     31 H31       -13.1724    4.7700   49.2102 H       1  ZINC001513543414    0.0500
     32 H32       -11.7994    5.5403   48.3797 H       1  ZINC001513543414    0.0600
     33 H33       -12.0376    2.5714   49.0474 H       1  ZINC001513543414    0.0700
     34 H34       -10.6646    3.3415   48.2169 H       1  ZINC001513543414    0.0600
     35 H35       -10.6017    5.9414   49.8155 H       1  ZINC001513543414    0.0700
     36 H36        -9.5393    5.3601   51.1201 H       1  ZINC001513543414    0.0600
     37 H37        -9.1920    4.9258   49.4292 H       1  ZINC001513543414    0.0700
     38 H38       -12.1345    5.1746   51.4732 H       1  ZINC001513543414    0.0900
     39 H39       -12.8882    3.6050   51.0346 H       1  ZINC001513543414    0.0800
     40 H40       -10.7162    4.1584   53.1358 H       1  ZINC001513543414    0.0800
     41 H41       -12.1723    3.1157   53.2810 H       1  ZINC001513543414    0.0900
     42 H42        -8.7471    2.6776   53.0636 H       1  ZINC001513543414    0.1000
     43 H43        -9.8755    1.6186   53.9431 H       1  ZINC001513543414    0.1100
     44 H44       -11.4534   -2.3363   51.3753 H       1  ZINC001513543414    0.0900
     45 H45       -10.0440   -3.0837   52.2020 H       1  ZINC001513543414    0.0900
     46 H46       -12.8911   -2.6664   53.2785 H       1  ZINC001513543414    0.0800
     47 H47       -11.8488   -4.1221   53.4159 H       1  ZINC001513543414    0.0900
     48 H48       -12.0470   -2.1711   55.4000 H       1  ZINC001513543414    0.0700
     49 H49       -10.6214   -3.2215   55.1782 H       1  ZINC001513543414    0.0700
     50 H50        -7.1131    1.4141   49.5599 H       1  ZINC001513543414    0.0600
     51 H51        -7.5139    3.0452   50.1800 H       1  ZINC001513543414    0.0900
     52 H52        -5.2182    2.6830   48.7976 H       1  ZINC001513543414    0.0800
     53 H53        -5.1949    3.6984   50.2782 H       1  ZINC001513543414    0.0900
     54 H54        -1.5247    3.0465   50.0919 H       1  ZINC001513543414    0.0900
     55 H55        -2.3304    1.8315   49.0707 H       1  ZINC001513543414    0.0400
     56 H56        -3.0566    3.4434   49.2769 H       1  ZINC001513543414    0.0400
     57 H57        -4.9027    1.9206   52.7043 H       1  ZINC001513543414    0.1000
     58 H58        -5.2389    0.2727   52.1035 H       1  ZINC001513543414    0.0900
@<TRIPOS>BOND
     1     1     2    1
     2     1    30    1
     3     1    31    1
     4     1    32    1
     5     2     3    1
     6     2    33    1
     7     2    34    1
     8     3    29    1
     9     3     4    1
    10     3     5    1
    11     4    35    1
    12     4    36    1
    13     4    37    1
    14     5     6    1
    15     5    38    1
    16     5    39    1
    17     6     7    1
    18     6    40    1
    19     6    41    1
    20     7     8    1
    21     7     9    1
    22     7    29    1
    23     9    10    1
    24     9    42    1
    25     9    43    1
    26    10    20    1
    27    10    11    1
    28    11    12    1
    29    11    18    2
    30    12    13    1
    31    12    17    1
    32    12    14    1
    33    14    15    1
    34    14    44    1
    35    14    45    1
    36    15    16    1
    37    15    46    1
    38    15    47    1
    39    16    17    1
    40    16    48    1
    41    16    49    1
    42    18    19    1
    43    19    20    2
    44    20    21    1
    45    21    28    1
    46    21    22    1
    47    22    23    1
    48    22    50    1
    49    22    51    1
    50    23    24    1
    51    23    52    1
    52    23    53    1
    53    24    25    1
    54    24    26    1
    55    24    28    1
    56    26    27    1
    57    27    54    1
    58    27    55    1
    59    27    56    1
    60    28    57    1
    61    28    58    1
@<TRIPOS>SUBSTRUCTURE
     1 ZINC001513543414        1 TEMP              0 ****  ****    0 ROOT


##########                                Name:    ZINC000429196987
##########                DOCK_Rotatable_Bonds:                   7
##########                         Heavy_Atoms:                  28
##########                    Molecular_Weight:             403.505
##########                DOCK_Rotatable_Bonds:                   7
##########                       Formal_Charge:          -0.0399997
##########                     HBond_Acceptors:                   9
##########                        HBond_Donors:                   1
##########                         Heavy_Atoms:                  28
##########                          Grid_Score:          -37.180614
##########                     Grid_vdw_energy:          -33.847702
##########                      Grid_es_energy:           -3.332914
##########           Internal_energy_repulsive:           15.414262

@<TRIPOS>MOLECULE
ZINC000429196987
 53 55 1 0 0
SMALL
USER_CHARGES


@<TRIPOS>ATOM
      1 C1          1.0106    4.7144   49.0318 C.3     1  ZINC000429196987    0.0800
      2 N2          1.2481    3.4526   49.7375 N.am    1  ZINC000429196987   -0.6300
      3 C3          2.6117    2.9349   49.8735 C.3     1  ZINC000429196987    0.1600
      4 C4          3.0112    2.2315   48.6021 C.ar    1  ZINC000429196987   -0.0600
      5 C5          4.3309    2.2437   48.1907 C.ar    1  ZINC000429196987   -0.1300
      6 C6          4.6973    1.5984   47.0244 C.ar    1  ZINC000429196987   -0.0300
      7 C7          3.7441    0.9405   46.2698 C.ar    1  ZINC000429196987   -0.6600
      8 S8          4.2111    0.1184   44.7829 S.o2    1  ZINC000429196987    2.5000
      9 C9          3.3064    0.9949   43.4776 C.3     1  ZINC000429196987   -0.6500
     10 O10         5.6067    0.3614   44.6716 O.2     1  ZINC000429196987   -0.9400
     11 O11         3.7074   -1.2011   44.9390 O.2     1  ZINC000429196987   -0.9400
     12 C12         2.4247    0.9271   46.6819 C.ar    1  ZINC000429196987   -0.0300
     13 C13         2.0589    1.5692   47.8501 C.ar    1  ZINC000429196987   -0.1100
     14 C14         0.2120    2.7683   50.2616 C.2     1  ZINC000429196987    0.7100
     15 O15         0.4093    1.7219   50.8485 O.2     1  ZINC000429196987   -0.5800
     16 N16        -1.0427    3.2438   50.1351 N.am    1  ZINC000429196987   -0.7400
     17 C17        -2.1690    2.4990   50.7032 C.3     1  ZINC000429196987    0.1600
     18 C18        -3.1335    3.4723   51.3867 C.3     1  ZINC000429196987   -0.1300
     19 C19        -4.3376    2.6960   51.9249 C.3     1  ZINC000429196987    0.0700
     20 N20        -5.0122    2.0071   50.8174 N.3     1  ZINC000429196987   -0.4700
     21 C21        -6.1857    1.3990   51.2496 C.ar    1  ZINC000429196987    0.2500
     22 C22        -7.2204    2.1696   51.7784 C.ar    1  ZINC000429196987   -0.1300
     23 C23        -8.3690    1.5154   52.1949 C.ar    1  ZINC000429196987   -0.1000
     24 C24        -8.4188    0.1350   52.0603 C.ar    1  ZINC000429196987    0.0200
     25 N25        -7.3925   -0.5150   51.5487 N.ar    1  ZINC000429196987   -0.2200
     26 N26        -6.3279    0.0848   51.1559 N.ar    1  ZINC000429196987   -0.2800
     27 C27        -4.1201    1.0330   50.1759 C.3     1  ZINC000429196987    0.0600
     28 C28        -2.9095    1.7595   49.5855 C.3     1  ZINC000429196987   -0.1200
     29 H29         0.8444    4.5131   47.9735 H       1  ZINC000429196987    0.0600
     30 H30         0.1319    5.2051   49.4506 H       1  ZINC000429196987    0.0700
     31 H31         1.8785    5.3637   49.1463 H       1  ZINC000429196987    0.0800
     32 H32         3.2970    3.7614   50.0623 H       1  ZINC000429196987    0.1000
     33 H33         2.6523    2.2322   50.7057 H       1  ZINC000429196987    0.0900
     34 H34         5.0756    2.7577   48.7804 H       1  ZINC000429196987    0.1300
     35 H35         5.7282    1.6084   46.7027 H       1  ZINC000429196987    0.1400
     36 H36         3.6018    2.0442   43.4725 H       1  ZINC000429196987    0.1300
     37 H37         3.5385    0.5474   42.5113 H       1  ZINC000429196987    0.1300
     38 H38         2.2352    0.9199   43.6649 H       1  ZINC000429196987    0.1300
     39 H39         1.6800    0.4128   46.0925 H       1  ZINC000429196987    0.1400
     40 H40         1.0281    1.5587   48.1720 H       1  ZINC000429196987    0.1400
     41 H41        -1.2000    4.0792   49.6679 H       1  ZINC000429196987    0.4000
     42 H42        -1.7986    1.7790   51.4331 H       1  ZINC000429196987    0.0900
     43 H43        -2.6238    3.9708   52.2112 H       1  ZINC000429196987    0.0800
     44 H44        -3.4726    4.2154   50.6651 H       1  ZINC000429196987    0.0700
     45 H45        -3.9992    1.9625   52.6566 H       1  ZINC000429196987    0.0600
     46 H46        -5.0332    3.3882   52.3995 H       1  ZINC000429196987    0.0900
     47 H47        -7.1295    3.2426   51.8612 H       1  ZINC000429196987    0.1500
     48 H48        -9.2007    2.0635   52.6123 H       1  ZINC000429196987    0.1500
     49 H49        -9.2986   -0.4068   52.3751 H       1  ZINC000429196987    0.1700
     50 H50        -3.7828    0.3072   50.9158 H       1  ZINC000429196987    0.0500
     51 H51        -4.6577    0.5172   49.3802 H       1  ZINC000429196987    0.0900
     52 H52        -3.2450    2.4758   48.8354 H       1  ZINC000429196987    0.0800
     53 H53        -2.2398    1.0344   49.1230 H       1  ZINC000429196987    0.0800
@<TRIPOS>BOND
     1     1     2    1
     2     1    29    1
     3     1    30    1
     4     1    31    1
     5     2     3    1
     6     2    14   am
     7     3     4    1
     8     3    32    1
     9     3    33    1
    10     4    13   ar
    11     4     5   ar
    12     5     6   ar
    13     5    34    1
    14     6     7   ar
    15     6    35    1
    16     7     8    1
    17     7    12   ar
    18     8     9    1
    19     8    10    2
    20     8    11    2
    21     9    36    1
    22     9    37    1
    23     9    38    1
    24    12    13   ar
    25    12    39    1
    26    13    40    1
    27    14    15    2
    28    14    16   am
    29    16    17    1
    30    16    41    1
    31    17    28    1
    32    17    18    1
    33    17    42    1
    34    18    19    1
    35    18    43    1
    36    18    44    1
    37    19    20    1
    38    19    45    1
    39    19    46    1
    40    20    21    1
    41    20    27    1
    42    21    26   ar
    43    21    22   ar
    44    22    23   ar
    45    22    47    1
    46    23    24   ar
    47    23    48    1
    48    24    25   ar
    49    24    49    1
    50    25    26   ar
    51    27    28    1
    52    27    50    1
    53    27    51    1
    54    28    52    1
    55    28    53    1
@<TRIPOS>SUBSTRUCTURE
     1 ZINC000429196987        1 TEMP              0 ****  ****    0 ROOT


##########                                Name:    ZINC000182378855
##########                DOCK_Rotatable_Bonds:                   8
##########                         Heavy_Atoms:                  27
##########                    Molecular_Weight:              394.83
##########                DOCK_Rotatable_Bonds:                   8
##########                       Formal_Charge:          -0.0200001
##########                     HBond_Acceptors:                   8
##########                        HBond_Donors:                   1
##########                         Heavy_Atoms:                  27
##########                          Grid_Score:          -37.160664
##########                     Grid_vdw_energy:          -36.503563
##########                      Grid_es_energy:           -0.657102
##########           Internal_energy_repulsive:           10.457964

@<TRIPOS>MOLECULE
ZINC000182378855
 47 49 1 0 0
SMALL
USER_CHARGES


@<TRIPOS>ATOM
      1 C1         -4.0044    2.0080   50.8138 C.3     1  ZINC000182378855    0.0300
      2 O2         -4.8153    1.4357   49.7857 O.3     1  ZINC000182378855   -0.3900
      3 C3         -5.4830    0.2333   50.1737 C.3     1  ZINC000182378855    0.0600
      4 C4         -6.5255    0.5524   51.2471 C.3     1  ZINC000182378855    0.0700
      5 O5         -7.4262   -0.5492   51.3789 O.3     1  ZINC000182378855   -0.2900
      6 C6         -8.3585   -0.4686   52.3614 C.ar    1  ZINC000182378855    0.3300
      7 C7         -9.4337   -1.3470   52.3610 C.ar    1  ZINC000182378855   -0.1300
      8 C8        -10.3847   -1.2515   53.3786 C.ar    1  ZINC000182378855   -0.0600
      9 C9        -11.5488   -2.1673   53.4203 C.2     1  ZINC000182378855    0.5600
     10 O10       -11.8970   -2.7534   52.4145 O.2     1  ZINC000182378855   -0.5200
     11 N11       -12.2213   -2.3501   54.5738 N.am    1  ZINC000182378855   -0.7100
     12 C12       -13.3734   -3.2542   54.6146 C.3     1  ZINC000182378855    0.1200
     13 H13       -13.1490   -4.1813   54.0873 H       1  ZINC000182378855    0.1100
     14 C14       -14.6186   -2.5723   54.0048 C.3     1  ZINC000182378855   -0.1700
     15 C15       -15.6324   -2.5313   55.1696 C.3     1  ZINC000182378855    0.0400
     16 O16       -14.8235   -2.5863   56.3649 O.3     1  ZINC000182378855   -0.3600
     17 C17       -13.7822   -3.5444   56.0758 C.3     1  ZINC000182378855    0.1100
     18 H18       -14.1654   -4.5607   56.1679 H       1  ZINC000182378855    0.1000
     19 C19       -12.6092   -3.3390   56.9994 C.ar    1  ZINC000182378855   -0.0500
     20 C20       -12.3265   -2.0768   57.4865 C.ar    1  ZINC000182378855   -0.1100
     21 C21       -11.2541   -1.8874   58.3384 C.ar    1  ZINC000182378855   -0.0800
     22 C22       -10.4565   -2.9591   58.6952 C.ar    1  ZINC000182378855   -0.0700
     23 Cl23       -9.1061   -2.7204   59.7597 Cl      1  ZINC000182378855   -0.0400
     24 C24       -10.7362   -4.2239   58.2026 C.ar    1  ZINC000182378855    0.1200
     25 F25        -9.9582   -5.2723   58.5505 F       1  ZINC000182378855   -0.1200
     26 C26       -11.8135   -4.4123   57.3544 C.ar    1  ZINC000182378855   -0.1300
     27 C27       -10.2088   -0.2681   54.3584 C.ar    1  ZINC000182378855   -0.1900
     28 C28        -9.1111    0.5652   54.2845 C.ar    1  ZINC000182378855    0.1400
     29 N29        -8.2298    0.4421   53.3111 N.ar    1  ZINC000182378855   -0.5200
     30 H30        -3.2356    1.2942   51.1097 H       1  ZINC000182378855    0.0400
     31 H31        -3.5323    2.9167   50.4405 H       1  ZINC000182378855    0.0900
     32 H32        -4.6270    2.2495   51.6753 H       1  ZINC000182378855    0.0400
     33 H33        -5.9770   -0.2042   49.3061 H       1  ZINC000182378855    0.0600
     34 H34        -4.7556   -0.4737   50.5726 H       1  ZINC000182378855    0.0700
     35 H35        -6.0248    0.7283   52.1992 H       1  ZINC000182378855    0.0800
     36 H36        -7.0822    1.4443   50.9592 H       1  ZINC000182378855    0.0800
     37 H37        -9.5330   -2.0922   51.5856 H       1  ZINC000182378855    0.1600
     38 H38       -11.9427   -1.8831   55.3770 H       1  ZINC000182378855    0.4000
     39 H39       -14.3770   -1.5625   53.6730 H       1  ZINC000182378855    0.0900
     40 H40       -15.0112   -3.1636   53.1775 H       1  ZINC000182378855    0.0900
     41 H41       -16.2052   -1.6044   55.1416 H       1  ZINC000182378855    0.1000
     42 H42       -16.3005   -3.3910   55.1217 H       1  ZINC000182378855    0.0700
     43 H43       -12.9462   -1.2384   57.2044 H       1  ZINC000182378855    0.1500
     44 H44       -11.0368   -0.9014   58.7218 H       1  ZINC000182378855    0.1500
     45 H45       -12.0327   -5.3976   56.9702 H       1  ZINC000182378855    0.1500
     46 H46       -10.9226   -0.1627   55.1620 H       1  ZINC000182378855    0.1400
     47 H47        -8.9693    1.3263   55.0374 H       1  ZINC000182378855    0.1700
@<TRIPOS>BOND
     1     1     2    1
     2     1    30    1
     3     1    31    1
     4     1    32    1
     5     2     3    1
     6     3     4    1
     7     3    33    1
     8     3    34    1
     9     4     5    1
    10     4    35    1
    11     4    36    1
    12     5     6    1
    13     6    29   ar
    14     6     7   ar
    15     7     8   ar
    16     7    37    1
    17     8     9    1
    18     8    27   ar
    19     9    10    2
    20     9    11   am
    21    11    12    1
    22    11    38    1
    23    12    13    1
    24    12    17    1
    25    12    14    1
    26    14    15    1
    27    14    39    1
    28    14    40    1
    29    15    16    1
    30    15    41    1
    31    15    42    1
    32    16    17    1
    33    17    18    1
    34    17    19    1
    35    19    26   ar
    36    19    20   ar
    37    20    21   ar
    38    20    43    1
    39    21    22   ar
    40    21    44    1
    41    22    23    1
    42    22    24   ar
    43    24    25    1
    44    24    26   ar
    45    26    45    1
    46    27    28   ar
    47    27    46    1
    48    28    29   ar
    49    28    47    1
@<TRIPOS>SUBSTRUCTURE
     1 ZINC000182378855        1 TEMP              0 ****  ****    0 ROOT


##########                                Name:    ZINC001342153661
##########                DOCK_Rotatable_Bonds:                   8
##########                         Heavy_Atoms:                  29
##########                    Molecular_Weight:             395.548
##########                DOCK_Rotatable_Bonds:                   8
##########                       Formal_Charge:          -0.0400005
##########                     HBond_Acceptors:                   6
##########                        HBond_Donors:                   1
##########                         Heavy_Atoms:                  29
##########                          Grid_Score:          -37.158173
##########                     Grid_vdw_energy:          -35.691307
##########                      Grid_es_energy:           -1.466864
##########           Internal_energy_repulsive:           19.095816

@<TRIPOS>MOLECULE
ZINC001342153661
 62 65 1 0 0
SMALL
USER_CHARGES


@<TRIPOS>ATOM
      1 C1         -9.5247    3.5555   49.9478 C.2     1  ZINC001342153661   -0.1400
      2 C2         -9.2068    3.7670   51.2010 C.2     1  ZINC001342153661   -0.1600
      3 C3        -10.2688    4.1756   52.1891 C.3     1  ZINC001342153661   -0.1200
      4 C4         -7.7792    3.6020   51.6544 C.3     1  ZINC001342153661    0.1500
      5 N5         -7.3856    2.1967   51.5270 N.pl3   1  ZINC001342153661   -0.4700
      6 C6         -6.3808    1.6878   50.7516 C.2     1  ZINC001342153661    0.1800
      7 C7         -5.4583    2.4739   49.8562 C.3     1  ZINC001342153661   -0.0600
      8 C8         -4.0849    1.8004   49.8214 C.3     1  ZINC001342153661    0.1600
      9 H9         -4.1937    0.7414   50.0554 H       1  ZINC001342153661    0.1000
     10 O10        -3.5168    1.9442   48.5180 O.3     1  ZINC001342153661   -0.5400
     11 C11        -3.1811    2.4493   50.8377 C.ar    1  ZINC001342153661   -0.1700
     12 C12        -3.6790    2.8419   52.0704 C.ar    1  ZINC001342153661   -0.0600
     13 C13        -2.8105    3.4346   52.9746 C.ar    1  ZINC001342153661   -0.1700
     14 C14        -1.4871    3.6131   52.6192 C.ar    1  ZINC001342153661    0.1000
     15 N15        -1.0482    3.2271   51.4369 N.ar    1  ZINC001342153661   -0.4800
     16 C16        -1.8440    2.6555   50.5546 C.ar    1  ZINC001342153661    0.1100
     17 N17        -6.3686    0.3973   50.9310 N.2     1  ZINC001342153661   -0.2700
     18 N18        -7.2900    0.0588   51.7606 N.2     1  ZINC001342153661   -0.3200
     19 C19        -7.9418    1.1246   52.1621 C.2     1  ZINC001342153661    0.3600
     20 N20        -9.0005    1.1549   53.0557 N.3     1  ZINC001342153661   -0.4500
     21 C21        -8.5200    1.2945   54.4364 C.3     1  ZINC001342153661    0.0500
     22 C22        -9.7136    1.4702   55.3779 C.3     1  ZINC001342153661   -0.1200
     23 C23       -10.6349    0.2530   55.2590 C.3     1  ZINC001342153661   -0.1200
     24 C24       -11.0823    0.1018   53.8025 C.3     1  ZINC001342153661   -0.0800
     25 H25       -11.6537    0.9808   53.5042 H       1  ZINC001342153661    0.0800
     26 C26       -11.9560   -1.1466   53.6636 C.3     1  ZINC001342153661   -0.0800
     27 C27       -13.1578   -1.0783   54.6381 C.3     1  ZINC001342153661   -0.1200
     28 C28       -14.1924   -2.0188   53.9716 C.3     1  ZINC001342153661   -0.1300
     29 C29       -14.0273   -1.7528   52.4609 C.3     1  ZINC001342153661   -0.1300
     30 C30       -12.6053   -1.1981   52.2652 C.3     1  ZINC001342153661   -0.1200
     31 C31        -9.8491   -0.0343   52.9066 C.3     1  ZINC001342153661    0.0800
     32 H32       -10.5478    3.6738   49.6229 H       1  ZINC001342153661    0.1000
     33 H33        -8.7628    3.2670   49.2388 H       1  ZINC001342153661    0.1100
     34 H34       -10.7644    3.2863   52.5783 H       1  ZINC001342153661    0.0700
     35 H35        -9.8087    4.7242   53.0109 H       1  ZINC001342153661    0.0600
     36 H36       -11.0015    4.8120   51.6927 H       1  ZINC001342153661    0.0700
     37 H37        -7.1278    4.2193   51.0356 H       1  ZINC001342153661    0.1000
     38 H38        -7.6907    3.9112   52.6958 H       1  ZINC001342153661    0.1000
     39 H39        -5.8719    2.5079   48.8483 H       1  ZINC001342153661    0.1100
     40 H40        -5.3557    3.4886   50.2411 H       1  ZINC001342153661    0.1000
     41 H41        -2.5974    1.6515   48.4553 H       1  ZINC001342153661    0.3800
     42 H42        -4.7186    2.6900   52.3207 H       1  ZINC001342153661    0.1300
     43 H43        -3.1641    3.7531   53.9441 H       1  ZINC001342153661    0.1400
     44 H44        -0.8045    4.0742   53.3176 H       1  ZINC001342153661    0.1600
     45 H45        -1.4484    2.3527   49.5963 H       1  ZINC001342153661    0.1500
     46 H46        -7.9629    0.4013   54.7191 H       1  ZINC001342153661    0.0500
     47 H47        -7.8694    2.1661   54.5080 H       1  ZINC001342153661    0.0700
     48 H48        -9.3575    1.5582   56.4044 H       1  ZINC001342153661    0.0800
     49 H49       -10.2634    2.3709   55.1044 H       1  ZINC001342153661    0.0700
     50 H50       -10.0970   -0.6427   55.5697 H       1  ZINC001342153661    0.0600
     51 H51       -11.5084    0.3937   55.8957 H       1  ZINC001342153661    0.0700
     52 H52       -11.3666   -2.0455   53.8439 H       1  ZINC001342153661    0.0800
     53 H53       -12.8774   -1.4495   55.6239 H       1  ZINC001342153661    0.0700
     54 H54       -13.5455   -0.0617   54.7028 H       1  ZINC001342153661    0.0700
     55 H55       -13.9660   -3.0598   54.2025 H       1  ZINC001342153661    0.0600
     56 H56       -15.2019   -1.7661   54.2953 H       1  ZINC001342153661    0.0600
     57 H57       -14.1458   -2.6816   51.9031 H       1  ZINC001342153661    0.0600
     58 H58       -14.7628   -1.0204   52.1283 H       1  ZINC001342153661    0.0600
     59 H59       -12.6508   -0.1966   51.8374 H       1  ZINC001342153661    0.0600
     60 H60       -12.0339   -1.8578   51.6122 H       1  ZINC001342153661    0.0600
     61 H61       -10.1638   -0.1278   51.8673 H       1  ZINC001342153661    0.0900
     62 H62        -9.2857   -0.9212   53.1965 H       1  ZINC001342153661    0.0500
@<TRIPOS>BOND
     1     1     2    2
     2     1    32    1
     3     1    33    1
     4     2     3    1
     5     2     4    1
     6     3    34    1
     7     3    35    1
     8     3    36    1
     9     4     5    1
    10     4    37    1
    11     4    38    1
    12     5    19    1
    13     5     6    1
    14     6     7    1
    15     6    17    2
    16     7     8    1
    17     7    39    1
    18     7    40    1
    19     8     9    1
    20     8    10    1
    21     8    11    1
    22    10    41    1
    23    11    16   ar
    24    11    12   ar
    25    12    13   ar
    26    12    42    1
    27    13    14   ar
    28    13    43    1
    29    14    15   ar
    30    14    44    1
    31    15    16   ar
    32    16    45    1
    33    17    18    1
    34    18    19    2
    35    19    20    1
    36    20    31    1
    37    20    21    1
    38    21    22    1
    39    21    46    1
    40    21    47    1
    41    22    23    1
    42    22    48    1
    43    22    49    1
    44    23    24    1
    45    23    50    1
    46    23    51    1
    47    24    25    1
    48    24    26    1
    49    24    31    1
    50    26    30    1
    51    26    27    1
    52    26    52    1
    53    27    28    1
    54    27    53    1
    55    27    54    1
    56    28    29    1
    57    28    55    1
    58    28    56    1
    59    29    30    1
    60    29    57    1
    61    29    58    1
    62    30    59    1
    63    30    60    1
    64    31    61    1
    65    31    62    1
@<TRIPOS>SUBSTRUCTURE
     1 ZINC001342153661        1 TEMP              0 ****  ****    0 ROOT


##########                                Name:    ZINC000740843182
##########                DOCK_Rotatable_Bonds:                  10
##########                         Heavy_Atoms:                  24
##########                    Molecular_Weight:              419.34
##########                DOCK_Rotatable_Bonds:                  10
##########                       Formal_Charge:          0.00999957
##########                     HBond_Acceptors:                   7
##########                        HBond_Donors:                   3
##########                         Heavy_Atoms:                  24
##########                          Grid_Score:          -37.153496
##########                     Grid_vdw_energy:          -35.318417
##########                      Grid_es_energy:           -1.835078
##########           Internal_energy_repulsive:           14.395001

@<TRIPOS>MOLECULE
ZINC000740843182
 47 48 1 0 0
SMALL
USER_CHARGES


@<TRIPOS>ATOM
      1 C1        -11.9704   -1.6093   59.8695 C.3     1  ZINC000740843182   -0.1500
      2 C2        -10.6979   -2.3599   60.2675 C.3     1  ZINC000740843182   -0.1000
      3 H3        -10.8769   -2.9158   61.1878 H       1  ZINC000740843182    0.0900
      4 C4        -10.3093   -3.3320   59.1518 C.3     1  ZINC000740843182    0.1200
      5 N5        -11.1099   -3.0504   57.9578 N.am    1  ZINC000740843182   -0.7200
      6 C6        -11.1663   -3.9506   56.9564 C.2     1  ZINC000740843182    0.5500
      7 O7        -10.5515   -4.9957   57.0433 O.2     1  ZINC000740843182   -0.5000
      8 C8        -11.9755   -3.6672   55.7526 C.ar    1  ZINC000740843182   -0.1300
      9 C9        -11.4274   -2.9406   54.6945 C.ar    1  ZINC000740843182    0.0200
     10 C10       -12.1880   -2.6799   53.5735 C.ar    1  ZINC000740843182   -0.6800
     11 S11       -11.4974   -1.7627   52.2369 S.o2    1  ZINC000740843182    2.7000
     12 O12       -10.0934   -1.9757   52.2871 O.2     1  ZINC000740843182   -0.9400
     13 O13       -12.2883   -2.0609   51.0946 O.2     1  ZINC000740843182   -0.9500
     14 N14       -11.7390   -0.1580   52.5671 N.am    1  ZINC000740843182   -1.0900
     15 C15       -11.1699    0.4340   53.7802 C.3     1  ZINC000740843182    0.0800
     16 C16        -9.8346    1.1691   53.6483 C.3     1  ZINC000740843182   -0.1800
     17 C17       -11.1254    1.9609   53.8673 C.3     1  ZINC000740843182   -0.1900
     18 C18       -13.4916   -3.1372   53.4958 C.ar    1  ZINC000740843182    0.0100
     19 C19       -14.0420   -3.8580   54.5402 C.ar    1  ZINC000740843182   -0.1200
     20 C20       -13.2908   -4.1304   55.6661 C.ar    1  ZINC000740843182    0.0100
     21 Br21      -14.0445   -5.1159   57.0933 Br      1  ZINC000740843182    0.0100
     22 C22        -9.5631   -1.3580   60.4893 C.3     1  ZINC000740843182   -0.1400
     23 C23        -9.8837   -0.4849   61.7041 C.3     1  ZINC000740843182    0.1000
     24 H24       -10.7864   -0.8555   62.1898 H       1  ZINC000740843182    0.1000
     25 C25       -10.1050    0.9594   61.2501 C.3     1  ZINC000740843182   -0.1900
     26 O26        -8.7930   -0.5325   62.6261 O.3     1  ZINC000740843182   -0.5600
     27 H27       -12.2474   -0.9167   60.6644 H       1  ZINC000740843182    0.0600
     28 H28       -11.7915   -1.0534   58.9492 H       1  ZINC000740843182    0.0600
     29 H29       -12.7789   -2.3231   59.7115 H       1  ZINC000740843182    0.0500
     30 H30        -9.2517   -3.2114   58.9168 H       1  ZINC000740843182    0.0700
     31 H31       -10.4942   -4.3547   59.4803 H       1  ZINC000740843182    0.0700
     32 H32       -11.5995   -2.2159   57.8879 H       1  ZINC000740843182    0.4000
     33 H33       -10.4101   -2.5829   54.7533 H       1  ZINC000740843182    0.1500
     34 H34       -12.2573    0.3899   51.9571 H       1  ZINC000740843182    0.4200
     35 H35       -11.3522   -0.1176   54.7026 H       1  ZINC000740843182    0.1400
     36 H36        -9.1379    1.1011   54.4838 H       1  ZINC000740843182    0.1100
     37 H37        -9.3795    1.2123   52.6588 H       1  ZINC000740843182    0.1000
     38 H38       -11.5194    2.5249   53.0219 H       1  ZINC000740843182    0.1000
     39 H39       -11.2779    2.4138   54.8470 H       1  ZINC000740843182    0.1100
     40 H40       -14.0822   -2.9300   52.6156 H       1  ZINC000740843182    0.1600
     41 H41       -15.0601   -4.2120   54.4731 H       1  ZINC000740843182    0.1500
     42 H42        -8.6319   -1.8967   60.6646 H       1  ZINC000740843182    0.0700
     43 H43        -9.4574   -0.7274   59.6065 H       1  ZINC000740843182    0.0800
     44 H44       -10.9371    0.9956   60.5469 H       1  ZINC000740843182    0.0700
     45 H45       -10.3334    1.5813   62.1156 H       1  ZINC000740843182    0.0600
     46 H46        -9.2024    1.3299   60.7644 H       1  ZINC000740843182    0.0600
     47 H47        -7.9565   -0.2108   62.2628 H       1  ZINC000740843182    0.3700
@<TRIPOS>BOND
     1     1     2    1
     2     1    27    1
     3     1    28    1
     4     1    29    1
     5     2     3    1
     6     2     4    1
     7     2    22    1
     8     4     5    1
     9     4    30    1
    10     4    31    1
    11     5     6   am
    12     5    32    1
    13     6     7    2
    14     6     8    1
    15     8    20   ar
    16     8     9   ar
    17     9    10   ar
    18     9    33    1
    19    10    11    1
    20    10    18   ar
    21    11    12    2
    22    11    13    2
    23    11    14   am
    24    14    15    1
    25    14    34    1
    26    15    17    1
    27    15    16    1
    28    15    35    1
    29    16    17    1
    30    16    36    1
    31    16    37    1
    32    17    38    1
    33    17    39    1
    34    18    19   ar
    35    18    40    1
    36    19    20   ar
    37    19    41    1
    38    20    21    1
    39    22    23    1
    40    22    42    1
    41    22    43    1
    42    23    24    1
    43    23    25    1
    44    23    26    1
    45    25    44    1
    46    25    45    1
    47    25    46    1
    48    26    47    1
@<TRIPOS>SUBSTRUCTURE
     1 ZINC000740843182        1 TEMP              0 ****  ****    0 ROOT


##########                                Name:    ZINC001105793963
##########                DOCK_Rotatable_Bonds:                   9
##########                         Heavy_Atoms:                  24
##########                    Molecular_Weight:             337.422
##########                DOCK_Rotatable_Bonds:                   9
##########                       Formal_Charge:          -0.0100003
##########                     HBond_Acceptors:                   8
##########                        HBond_Donors:                   2
##########                         Heavy_Atoms:                  24
##########                          Grid_Score:          -37.108688
##########                     Grid_vdw_energy:          -35.150494
##########                      Grid_es_energy:           -1.958196
##########           Internal_energy_repulsive:            9.400956

@<TRIPOS>MOLECULE
ZINC001105793963
 51 52 1 0 0
SMALL
USER_CHARGES


@<TRIPOS>ATOM
      1 C1          2.1055    2.7463   54.5022 C.3     1  ZINC001105793963   -0.1500
      2 C2          3.1405    3.1497   53.4500 C.3     1  ZINC001105793963   -0.0300
      3 C3          2.8710    2.4041   52.1685 C.2     1  ZINC001105793963    0.1800
      4 N4          2.0984    2.7968   51.1844 N.2     1  ZINC001105793963   -0.4800
      5 C5          2.1624    1.8198   50.2621 C.2     1  ZINC001105793963    0.1700
      6 C6          1.4460    1.7964   48.9364 C.3     1  ZINC001105793963    0.1500
      7 N7          0.0726    1.3125   49.1305 N.3     1  ZINC001105793963   -0.6900
      8 C8         -0.8607    2.4333   49.3057 C.3     1  ZINC001105793963    0.0700
      9 C9         -1.9413    2.0439   50.3163 C.3     1  ZINC001105793963   -0.1000
     10 H10        -1.5295    1.3739   51.0710 H       1  ZINC001105793963    0.1000
     11 C11        -3.1327    1.3751   49.5973 C.3     1  ZINC001105793963    0.1100
     12 N12        -4.3288    1.8630   50.3226 N.am    1  ZINC001105793963   -0.6200
     13 C13        -5.4366    1.1692   50.6510 C.2     1  ZINC001105793963    0.5300
     14 O14        -5.5312   -0.0013   50.3479 O.2     1  ZINC001105793963   -0.5300
     15 C15        -6.5577    1.8479   51.3950 C.3     1  ZINC001105793963    0.1300
     16 H16        -6.1457    2.4376   52.2139 H       1  ZINC001105793963    0.1100
     17 C17        -7.3216    2.7663   50.4391 C.3     1  ZINC001105793963   -0.1600
     18 N18        -7.4699    0.8356   51.9330 N.am    1  ZINC001105793963   -0.7200
     19 C19        -8.3809    1.1769   52.8658 C.2     1  ZINC001105793963    0.5200
     20 C20        -9.3180    0.1353   53.4205 C.3     1  ZINC001105793963   -0.1700
     21 O21        -8.4464    2.3224   53.2587 O.2     1  ZINC001105793963   -0.5500
     22 C22        -4.0310    3.2865   50.6048 C.3     1  ZINC001105793963    0.1000
     23 C23        -2.5317    3.3040   50.9827 C.3     1  ZINC001105793963   -0.1000
     24 H24        -2.0522    4.2003   50.5892 H       1  ZINC001105793963    0.0900
     25 C25        -2.3652    3.2363   52.5021 C.3     1  ZINC001105793963   -0.1500
     26 N26         2.9558    0.9001   50.7238 N.2     1  ZINC001105793963   -0.3700
     27 O27         3.3780    1.2192   51.8152 O.3     1  ZINC001105793963    0.0800
     28 H28         1.1065    2.9921   54.1421 H       1  ZINC001105793963    0.0600
     29 H29         2.1722    1.6738   54.6849 H       1  ZINC001105793963    0.0600
     30 H30         2.3005    3.2855   55.4292 H       1  ZINC001105793963    0.0800
     31 H31         3.0738    4.2223   53.2674 H       1  ZINC001105793963    0.1100
     32 H32         4.1395    2.9040   53.8101 H       1  ZINC001105793963    0.1000
     33 H33         1.4210    2.8030   48.5191 H       1  ZINC001105793963    0.1000
     34 H34         1.9720    1.1319   48.2509 H       1  ZINC001105793963    0.0700
     35 H35        -0.2135    0.7199   48.3656 H       1  ZINC001105793963    0.3500
     36 H36        -0.3176    3.3045   49.6719 H       1  ZINC001105793963    0.0800
     37 H37        -1.3264    2.6712   48.3493 H       1  ZINC001105793963    0.0400
     38 H38        -3.1688    1.6849   48.5529 H       1  ZINC001105793963    0.0700
     39 H39        -3.0602    0.2899   49.6705 H       1  ZINC001105793963    0.0900
     40 H40        -8.1326    3.2572   50.9771 H       1  ZINC001105793963    0.0800
     41 H41        -6.6429    3.5194   50.0387 H       1  ZINC001105793963    0.0800
     42 H42        -7.7337    2.1765   49.6202 H       1  ZINC001105793963    0.0600
     43 H43        -7.4183   -0.0803   51.6178 H       1  ZINC001105793963    0.4100
     44 H44        -9.1109   -0.8266   52.9513 H       1  ZINC001105793963    0.0800
     45 H45        -9.1730    0.0528   54.4977 H       1  ZINC001105793963    0.1000
     46 H46       -10.3479    0.4260   53.2136 H       1  ZINC001105793963    0.1000
     47 H47        -4.2074    3.8948   49.7177 H       1  ZINC001105793963    0.0800
     48 H48        -4.6362    3.6434   51.4381 H       1  ZINC001105793963    0.0900
     49 H49        -2.8381    2.3295   52.8793 H       1  ZINC001105793963    0.0600
     50 H50        -1.3042    3.2234   52.7512 H       1  ZINC001105793963    0.0600
     51 H51        -2.8350    4.1077   52.9582 H       1  ZINC001105793963    0.0600
@<TRIPOS>BOND
     1     1     2    1
     2     1    28    1
     3     1    29    1
     4     1    30    1
     5     2     3    1
     6     2    31    1
     7     2    32    1
     8     3    27    1
     9     3     4    2
    10     4     5    1
    11     5     6    1
    12     5    26    2
    13     6     7    1
    14     6    33    1
    15     6    34    1
    16     7     8    1
    17     7    35    1
    18     8     9    1
    19     8    36    1
    20     8    37    1
    21     9    10    1
    22     9    23    1
    23     9    11    1
    24    11    12    1
    25    11    38    1
    26    11    39    1
    27    12    13   am
    28    12    22    1
    29    13    14    2
    30    13    15    1
    31    15    16    1
    32    15    17    1
    33    15    18    1
    34    17    40    1
    35    17    41    1
    36    17    42    1
    37    18    19   am
    38    18    43    1
    39    19    20    1
    40    19    21    2
    41    20    44    1
    42    20    45    1
    43    20    46    1
    44    22    23    1
    45    22    47    1
    46    22    48    1
    47    23    24    1
    48    23    25    1
    49    25    49    1
    50    25    50    1
    51    25    51    1
    52    26    27    1
@<TRIPOS>SUBSTRUCTURE
     1 ZINC001105793963        1 TEMP              0 ****  ****    0 ROOT


##########                                Name:    ZINC000637608314
##########                DOCK_Rotatable_Bonds:                   9
##########                         Heavy_Atoms:                  28
##########                    Molecular_Weight:             387.479
##########                DOCK_Rotatable_Bonds:                   9
##########                       Formal_Charge:           0.0499991
##########                     HBond_Acceptors:                   7
##########                        HBond_Donors:                   2
##########                         Heavy_Atoms:                  28
##########                          Grid_Score:          -37.089260
##########                     Grid_vdw_energy:          -35.537956
##########                      Grid_es_energy:           -1.551305
##########           Internal_energy_repulsive:           19.223650

@<TRIPOS>MOLECULE
ZINC000637608314
 57 59 1 0 0
SMALL
USER_CHARGES


@<TRIPOS>ATOM
      1 C1        -11.0290    0.7044   55.4792 C.3     1  ZINC000637608314   -0.1400
      2 C2        -11.2072    0.0352   54.1148 C.3     1  ZINC000637608314   -0.0400
      3 C3        -11.4599   -1.4611   54.3097 C.3     1  ZINC000637608314   -0.1500
      4 C4        -12.3994    0.6637   53.3906 C.3     1  ZINC000637608314   -0.1500
      5 C5         -9.9597    0.2311   53.2925 C.2     1  ZINC000637608314    0.1900
      6 C6         -9.5268    1.4844   53.0208 C.2     1  ZINC000637608314   -0.2400
      7 C7         -8.3669    1.6740   52.2564 C.2     1  ZINC000637608314    0.0200
      8 C8         -7.6874    0.5852   51.7947 C.2     1  ZINC000637608314   -0.2400
      9 C9         -6.4375    0.7607   50.9713 C.3     1  ZINC000637608314    0.2100
     10 N10        -5.6273    1.8418   51.5378 N.am    1  ZINC000637608314   -0.7300
     11 C11        -4.5943    2.3487   50.8359 C.2     1  ZINC000637608314    0.7100
     12 O12        -4.3339    1.9076   49.7333 O.2     1  ZINC000637608314   -0.5900
     13 N13        -3.8498    3.3443   51.3565 N.am    1  ZINC000637608314   -0.6200
     14 C14        -2.7281    3.8964   50.5929 C.3     1  ZINC000637608314    0.2000
     15 C15        -1.7151    2.8113   50.3328 C.2     1  ZINC000637608314   -0.0400
     16 C16        -0.7073    2.4631   51.1528 C.2     1  ZINC000637608314   -0.1900
     17 C17        -0.0100    1.4086   50.5199 C.2     1  ZINC000637608314   -0.2200
     18 C18        -0.6334    1.1754   49.3509 C.2     1  ZINC000637608314   -0.0300
     19 O19        -1.6689    2.0242   49.2456 O.3     1  ZINC000637608314   -0.1700
     20 C20        -4.1624    3.8745   52.6859 C.3     1  ZINC000637608314    0.1300
     21 C21        -3.3929    3.0823   53.7447 C.3     1  ZINC000637608314    0.0700
     22 H22        -3.4405    2.0175   53.5168 H       1  ZINC000637608314    0.0900
     23 C23        -3.9987    3.3469   55.1398 C.3     1  ZINC000637608314   -0.1500
     24 C24        -2.7348    3.4220   56.0392 C.3     1  ZINC000637608314   -0.1600
     25 C25        -1.7187    4.0695   55.0650 C.3     1  ZINC000637608314    0.0500
     26 O26        -2.0268    3.5120   53.7755 O.3     1  ZINC000637608314   -0.3800
     27 C27        -8.1646   -0.7020   52.0954 C.2     1  ZINC000637608314    0.5300
     28 O28        -7.5659   -1.6850   51.6890 O.2     1  ZINC000637608314   -0.5400
     29 N29        -9.2788   -0.8514   52.8368 N.am    1  ZINC000637608314   -0.6000
     30 H30       -10.1797    0.2566   55.9953 H       1  ZINC000637608314    0.0700
     31 H31       -10.8491    1.7703   55.3403 H       1  ZINC000637608314    0.0700
     32 H32       -11.9314    0.5627   56.0740 H       1  ZINC000637608314    0.0700
     33 H33       -12.3623   -1.6028   54.9045 H       1  ZINC000637608314    0.0700
     34 H34       -11.5870   -1.9378   53.3378 H       1  ZINC000637608314    0.0600
     35 H35       -10.6106   -1.9088   54.8258 H       1  ZINC000637608314    0.0700
     36 H36       -12.2194    1.7297   53.2516 H       1  ZINC000637608314    0.0700
     37 H37       -12.5264    0.1870   52.4186 H       1  ZINC000637608314    0.0600
     38 H38       -13.3018    0.5220   53.9853 H       1  ZINC000637608314    0.0700
     39 H39       -10.0747    2.3379   53.3923 H       1  ZINC000637608314    0.1500
     40 H40        -8.0157    2.6711   52.0353 H       1  ZINC000637608314    0.1400
     41 H41        -5.8637   -0.1660   50.9797 H       1  ZINC000637608314    0.0800
     42 H42        -6.7100    1.0101   49.9458 H       1  ZINC000637608314    0.0800
     43 H43        -5.8342    2.1929   52.4181 H       1  ZINC000637608314    0.4000
     44 H44        -3.0927    4.2882   49.6433 H       1  ZINC000637608314    0.1200
     45 H45        -2.2615    4.7001   51.1623 H       1  ZINC000637608314    0.0900
     46 H46        -0.4750    2.9048   52.1106 H       1  ZINC000637608314    0.1500
     47 H47         0.8571    0.8900   50.9015 H       1  ZINC000637608314    0.1500
     48 H48        -0.3514    0.4296   48.6226 H       1  ZINC000637608314    0.2000
     49 H49        -3.8728    4.9241   52.7357 H       1  ZINC000637608314    0.0800
     50 H50        -5.2327    3.7837   52.8708 H       1  ZINC000637608314    0.1000
     51 H51        -4.5417    4.2920   55.1540 H       1  ZINC000637608314    0.0800
     52 H52        -4.6438    2.5231   55.4452 H       1  ZINC000637608314    0.0900
     53 H53        -2.9075    4.0586   56.9071 H       1  ZINC000637608314    0.0800
     54 H54        -2.4090    2.4271   56.3427 H       1  ZINC000637608314    0.0800
     55 H55        -1.8458    5.1519   55.0502 H       1  ZINC000637608314    0.0600
     56 H56        -0.6999    3.8113   55.3543 H       1  ZINC000637608314    0.0800
     57 H57        -9.6028   -1.7426   53.0412 H       1  ZINC000637608314    0.4100
@<TRIPOS>BOND
     1     1     2    1
     2     1    30    1
     3     1    31    1
     4     1    32    1
     5     2     3    1
     6     2     4    1
     7     2     5    1
     8     3    33    1
     9     3    34    1
    10     3    35    1
    11     4    36    1
    12     4    37    1
    13     4    38    1
    14     5    29    1
    15     5     6    2
    16     6     7    1
    17     6    39    1
    18     7     8    2
    19     7    40    1
    20     8     9    1
    21     8    27    1
    22     9    10    1
    23     9    41    1
    24     9    42    1
    25    10    11   am
    26    10    43    1
    27    11    12    2
    28    11    13   am
    29    13    14    1
    30    13    20    1
    31    14    15    1
    32    14    44    1
    33    14    45    1
    34    15    19    1
    35    15    16    2
    36    16    17    1
    37    16    46    1
    38    17    18    2
    39    17    47    1
    40    18    19    1
    41    18    48    1
    42    20    21    1
    43    20    49    1
    44    20    50    1
    45    21    22    1
    46    21    26    1
    47    21    23    1
    48    23    24    1
    49    23    51    1
    50    23    52    1
    51    24    25    1
    52    24    53    1
    53    24    54    1
    54    25    26    1
    55    25    55    1
    56    25    56    1
    57    27    28    2
    58    27    29   am
    59    29    57    1
@<TRIPOS>SUBSTRUCTURE
     1 ZINC000637608314        1 TEMP              0 ****  ****    0 ROOT


##########                                Name:    ZINC000450219577
##########                DOCK_Rotatable_Bonds:                   8
##########                         Heavy_Atoms:                  26
##########                    Molecular_Weight:             353.421
##########                DOCK_Rotatable_Bonds:                   8
##########                       Formal_Charge:          -0.0199997
##########                     HBond_Acceptors:                   6
##########                        HBond_Donors:                   1
##########                         Heavy_Atoms:                  26
##########                          Grid_Score:          -37.075077
##########                     Grid_vdw_energy:          -35.670883
##########                      Grid_es_energy:           -1.404195
##########           Internal_energy_repulsive:           31.128160

@<TRIPOS>MOLECULE
ZINC000450219577
 49 51 1 0 0
SMALL
USER_CHARGES


@<TRIPOS>ATOM
      1 C1        -13.4876   -1.1464   50.2021 C.3     1  ZINC000450219577   -0.1800
      2 C2        -13.4308   -0.4373   51.5567 C.3     1  ZINC000450219577    0.1200
      3 C3        -14.1763    0.8957   51.4662 C.3     1  ZINC000450219577   -0.1800
      4 C4        -14.0881   -1.3180   52.6212 C.3     1  ZINC000450219577   -0.1400
      5 O5        -12.0457   -0.1936   51.9177 O.3     1  ZINC000450219577   -0.3400
      6 C6        -11.3260   -1.2522   52.3217 C.2     1  ZINC000450219577    0.4700
      7 O7        -11.5939   -2.3568   51.9117 O.2     1  ZINC000450219577   -0.5000
      8 C8        -10.1839   -1.0629   53.2864 C.3     1  ZINC000450219577    0.2000
      9 H9         -9.7759   -2.0355   53.5619 H       1  ZINC000450219577    0.1400
     10 N10        -9.1378   -0.2565   52.6527 N.am    1  ZINC000450219577   -0.7100
     11 C11        -8.1558   -0.8569   51.9515 C.2     1  ZINC000450219577    0.5800
     12 O12        -8.1372   -2.0677   51.8462 O.2     1  ZINC000450219577   -0.5200
     13 C13        -7.1013   -0.0430   51.3105 C.ar    1  ZINC000450219577   -0.2500
     14 C14        -6.1287   -0.6364   50.4978 C.ar    1  ZINC000450219577    0.1900
     15 N15        -5.2047    0.1290   49.9442 N.ar    1  ZINC000450219577   -0.5100
     16 C16        -5.1911    1.4317   50.1483 C.ar    1  ZINC000450219577    0.3800
     17 C17        -4.1164    2.2614   49.4944 C.3     1  ZINC000450219577   -0.1100
     18 C18        -3.0851    2.9280   50.4071 C.3     1  ZINC000450219577   -0.1500
     19 C19        -2.6829    1.7288   49.5463 C.3     1  ZINC000450219577   -0.1500
     20 N20        -6.0883    2.0316   50.9060 N.ar    1  ZINC000450219577   -0.5200
     21 C21        -7.0509    1.3434   51.4943 C.ar    1  ZINC000450219577    0.2200
     22 C22       -10.6816   -0.3586   54.5223 C.ar    1  ZINC000450219577   -0.1100
     23 C23       -11.8544   -0.7700   55.1273 C.ar    1  ZINC000450219577   -0.1000
     24 C24       -12.3109   -0.1241   56.2609 C.ar    1  ZINC000450219577   -0.1200
     25 C25       -11.5943    0.9332   56.7897 C.ar    1  ZINC000450219577   -0.1100
     26 C26       -10.4210    1.3440   56.1853 C.ar    1  ZINC000450219577   -0.1200
     27 C27        -9.9622    0.6953   55.0541 C.ar    1  ZINC000450219577   -0.0800
     28 H28       -13.0194   -0.5189   49.4436 H       1  ZINC000450219577    0.0800
     29 H29       -12.9565   -2.0960   50.2666 H       1  ZINC000450219577    0.0600
     30 H30       -14.5274   -1.3293   49.9310 H       1  ZINC000450219577    0.0700
     31 H31       -15.2161    0.7128   51.1952 H       1  ZINC000450219577    0.0700
     32 H32       -14.1359    1.4008   52.4313 H       1  ZINC000450219577    0.0600
     33 H33       -13.7081    1.5232   50.7078 H       1  ZINC000450219577    0.0800
     34 H34       -13.5569   -2.2676   52.6857 H       1  ZINC000450219577    0.0700
     35 H35       -14.0476   -0.8129   53.5863 H       1  ZINC000450219577    0.0700
     36 H36       -15.1279   -1.5009   52.3502 H       1  ZINC000450219577    0.0800
     37 H37        -9.1519    0.7097   52.7376 H       1  ZINC000450219577    0.4100
     38 H38        -6.1330   -1.7027   50.3263 H       1  ZINC000450219577    0.1700
     39 H39        -4.4200    2.8024   48.5982 H       1  ZINC000450219577    0.1300
     40 H40        -2.7102    3.9080   50.1114 H       1  ZINC000450219577    0.1000
     41 H41        -3.1840    2.7665   51.4805 H       1  ZINC000450219577    0.1100
     42 H42        -2.5173    0.7783   50.0534 H       1  ZINC000450219577    0.1000
     43 H43        -2.0436    1.9197   48.6844 H       1  ZINC000450219577    0.1100
     44 H44        -7.7821    1.8418   52.1135 H       1  ZINC000450219577    0.1800
     45 H45       -12.4142   -1.5961   54.7141 H       1  ZINC000450219577    0.1200
     46 H46       -13.2276   -0.4450   56.7331 H       1  ZINC000450219577    0.1200
     47 H47       -11.9514    1.4384   57.6750 H       1  ZINC000450219577    0.1300
     48 H48        -9.8614    2.1702   56.5983 H       1  ZINC000450219577    0.1300
     49 H49        -9.0456    1.0163   54.5819 H       1  ZINC000450219577    0.1300
@<TRIPOS>BOND
     1     1     2    1
     2     1    28    1
     3     1    29    1
     4     1    30    1
     5     2     3    1
     6     2     4    1
     7     2     5    1
     8     3    31    1
     9     3    32    1
    10     3    33    1
    11     4    34    1
    12     4    35    1
    13     4    36    1
    14     5     6    1
    15     6     7    2
    16     6     8    1
    17     8     9    1
    18     8    10    1
    19     8    22    1
    20    10    11   am
    21    10    37    1
    22    11    12    2
    23    11    13    1
    24    13    21   ar
    25    13    14   ar
    26    14    15   ar
    27    14    38    1
    28    15    16   ar
    29    16    17    1
    30    16    20   ar
    31    17    19    1
    32    17    18    1
    33    17    39    1
    34    18    19    1
    35    18    40    1
    36    18    41    1
    37    19    42    1
    38    19    43    1
    39    20    21   ar
    40    21    44    1
    41    22    27   ar
    42    22    23   ar
    43    23    24   ar
    44    23    45    1
    45    24    25   ar
    46    24    46    1
    47    25    26   ar
    48    25    47    1
    49    26    27   ar
    50    26    48    1
    51    27    49    1
@<TRIPOS>SUBSTRUCTURE
     1 ZINC000450219577        1 TEMP              0 ****  ****    0 ROOT


##########                                Name:    ZINC000504243286
##########                DOCK_Rotatable_Bonds:                   7
##########                         Heavy_Atoms:                  29
##########                    Molecular_Weight:             408.337
##########                DOCK_Rotatable_Bonds:                   7
##########                       Formal_Charge:           0.0299994
##########                     HBond_Acceptors:                  11
##########                        HBond_Donors:                   3
##########                         Heavy_Atoms:                  29
##########                          Grid_Score:          -37.073994
##########                     Grid_vdw_energy:          -36.035580
##########                      Grid_es_energy:           -1.038415
##########           Internal_energy_repulsive:           12.210962

@<TRIPOS>MOLECULE
ZINC000504243286
 44 46 1 0 0
SMALL
USER_CHARGES


@<TRIPOS>ATOM
      1 O1         -2.1951    1.7581   51.4329 O.2     1  ZINC000504243286   -0.5200
      2 C2         -2.0808    1.9306   50.2378 C.2     1  ZINC000504243286    0.5200
      3 C3         -3.2954    1.8678   49.3478 C.3     1  ZINC000504243286   -0.1600
      4 C4         -4.4856    2.5101   50.0633 C.3     1  ZINC000504243286    0.1300
      5 N5         -5.4969    1.4876   50.3429 N.pl3   1  ZINC000504243286   -0.7200
      6 C6         -6.5822    1.7866   51.1697 C.ar    1  ZINC000504243286    0.3100
      7 C7         -6.9047    3.1094   51.4438 C.ar    1  ZINC000504243286   -0.1900
      8 C8         -7.9789    3.4016   52.2615 C.ar    1  ZINC000504243286    0.0200
      9 C9         -8.7329    2.3789   52.8069 C.ar    1  ZINC000504243286   -0.2400
     10 C10        -9.9045    2.7015   53.6980 C.3     1  ZINC000504243286    0.5200
     11 F11        -9.4383    3.0988   54.9558 F       1  ZINC000504243286   -0.1700
     12 F12       -10.6518    3.7382   53.1289 F       1  ZINC000504243286   -0.1700
     13 F13       -10.7112    1.5669   53.8367 F       1  ZINC000504243286   -0.1700
     14 C14        -8.4145    1.0605   52.5359 C.ar    1  ZINC000504243286    0.0400
     15 C15        -7.3451    0.7616   51.7150 C.ar    1  ZINC000504243286   -0.1200
     16 N16        -7.0052   -0.6495   51.4256 N.pl3   1  ZINC000504243286    0.0400
     17 O17        -6.6153   -0.9669   50.3162 O.2     1  ZINC000504243286   -0.1700
     18 O18        -7.1153   -1.4936   52.2968 O.2     1  ZINC000504243286   -0.1400
     19 N19        -0.8684    2.1841   49.7064 N.am    1  ZINC000504243286   -0.6700
     20 C20         0.2605    2.2425   50.5336 C.ar    1  ZINC000504243286    0.1200
     21 C21         0.3458    3.2053   51.5305 C.ar    1  ZINC000504243286   -0.1000
     22 C22         1.4556    3.2651   52.3468 C.ar    1  ZINC000504243286   -0.1200
     23 C23         2.5009    2.3595   52.1769 C.ar    1  ZINC000504243286    0.1300
     24 N24         3.7088    2.2214   52.8652 N.am    1  ZINC000504243286   -0.6600
     25 C25         4.4536    1.2106   52.3869 C.2     1  ZINC000504243286    0.5300
     26 O26         5.5432    0.8643   52.7921 O.2     1  ZINC000504243286   -0.5000
     27 C27         3.6775    0.5846   51.2478 C.3     1  ZINC000504243286   -0.1200
     28 C28         2.4066    1.3996   51.1766 C.ar    1  ZINC000504243286   -0.1200
     29 C29         1.2983    1.3333   50.3641 C.ar    1  ZINC000504243286   -0.0600
     30 H30        -3.0950    2.4056   48.4212 H       1  ZINC000504243286    0.1100
     31 H31        -3.5263    0.8269   49.1212 H       1  ZINC000504243286    0.1100
     32 H32        -4.1497    2.9546   51.0001 H       1  ZINC000504243286    0.0800
     33 H33        -4.9170    3.2837   49.4281 H       1  ZINC000504243286    0.0900
     34 H34        -5.4128    0.6031   49.9539 H       1  ZINC000504243286    0.4100
     35 H35        -6.3160    3.9087   51.0184 H       1  ZINC000504243286    0.1600
     36 H36        -8.2300    4.4300   52.4754 H       1  ZINC000504243286    0.1600
     37 H37        -9.0054    0.2640   52.9635 H       1  ZINC000504243286    0.1600
     38 H38        -0.7776    2.3262   48.7512 H       1  ZINC000504243286    0.4200
     39 H39        -0.4606    3.9106   51.6670 H       1  ZINC000504243286    0.1400
     40 H40         1.5150    4.0166   53.1201 H       1  ZINC000504243286    0.1300
     41 H41         3.9787    2.7898   53.6034 H       1  ZINC000504243286    0.4100
     42 H42         4.2360    0.6659   50.3153 H       1  ZINC000504243286    0.1300
     43 H43         3.4505   -0.4584   51.4683 H       1  ZINC000504243286    0.1300
     44 H44         1.2363    0.5787   49.5939 H       1  ZINC000504243286    0.1500
@<TRIPOS>BOND
     1     1     2    2
     2     2     3    1
     3     2    19   am
     4     3     4    1
     5     3    30    1
     6     3    31    1
     7     4     5    1
     8     4    32    1
     9     4    33    1
    10     5     6    1
    11     5    34    1
    12     6    15   ar
    13     6     7   ar
    14     7     8   ar
    15     7    35    1
    16     8     9   ar
    17     8    36    1
    18     9    10    1
    19     9    14   ar
    20    10    11    1
    21    10    12    1
    22    10    13    1
    23    14    15   ar
    24    14    37    1
    25    15    16    1
    26    16    17    2
    27    16    18    2
    28    19    20    1
    29    19    38    1
    30    20    29   ar
    31    20    21   ar
    32    21    22   ar
    33    21    39    1
    34    22    23   ar
    35    22    40    1
    36    23    28   ar
    37    23    24    1
    38    24    25   am
    39    24    41    1
    40    25    26    2
    41    25    27    1
    42    27    28    1
    43    27    42    1
    44    27    43    1
    45    28    29   ar
    46    29    44    1
@<TRIPOS>SUBSTRUCTURE
     1 ZINC000504243286        1 TEMP              0 ****  ****    0 ROOT


##########                                Name:    ZINC000624498741
##########                DOCK_Rotatable_Bonds:                   7
##########                         Heavy_Atoms:                  27
##########                    Molecular_Weight:             379.339
##########                DOCK_Rotatable_Bonds:                   7
##########                       Formal_Charge:           0.0300003
##########                     HBond_Acceptors:                   9
##########                        HBond_Donors:                   0
##########                         Heavy_Atoms:                  27
##########                          Grid_Score:          -37.053696
##########                     Grid_vdw_energy:          -36.105267
##########                      Grid_es_energy:           -0.948431
##########           Internal_energy_repulsive:            8.990784

@<TRIPOS>MOLECULE
ZINC000624498741
 43 45 1 0 0
SMALL
USER_CHARGES


@<TRIPOS>ATOM
      1 C1         -4.7409    2.9064   52.8363 C.3     1  ZINC000624498741   -0.1100
      2 C2         -5.3818    1.7467   52.1182 C.ar    1  ZINC000624498741   -0.0900
      3 C3         -6.6515    1.3403   52.4643 C.ar    1  ZINC000624498741   -0.0400
      4 C4         -7.2448    0.2653   51.7978 C.ar    1  ZINC000624498741   -0.0500
      5 C5         -8.6060   -0.1732   52.1653 C.2     1  ZINC000624498741    0.2300
      6 N6         -9.1580   -1.3441   51.8966 N.2     1  ZINC000624498741   -0.4700
      7 C7        -10.3920   -1.2887   52.4213 C.2     1  ZINC000624498741    0.1800
      8 C8        -11.4258   -2.3843   52.3809 C.3     1  ZINC000624498741   -0.0300
      9 C9        -11.7817   -2.8025   53.8090 C.3     1  ZINC000624498741   -0.1300
     10 C10       -12.9266   -3.8168   53.7731 C.3     1  ZINC000624498741    0.0900
     11 N11       -13.7608   -3.6541   54.9664 N.am    1  ZINC000624498741   -0.5000
     12 C12       -15.0422   -3.2250   54.8360 C.2     1  ZINC000624498741    0.1300
     13 C13       -15.8320   -3.0668   55.9238 C.2     1  ZINC000624498741   -0.2300
     14 C14       -15.3279   -3.3476   57.2015 C.2     1  ZINC000624498741   -0.0200
     15 C15       -14.0404   -3.7789   57.3303 C.2     1  ZINC000624498741   -0.2400
     16 C16       -13.2495   -3.9372   56.1795 C.2     1  ZINC000624498741    0.5100
     17 O17       -12.0957   -4.3226   56.2804 O.2     1  ZINC000624498741   -0.5500
     18 N18       -10.5340   -0.1189   52.9713 N.2     1  ZINC000624498741   -0.3700
     19 O19        -9.5220    0.5370   52.8422 O.3     1  ZINC000624498741    0.0900
     20 C20        -6.5472   -0.3931   50.7826 C.ar    1  ZINC000624498741   -0.0200
     21 C21        -5.2774    0.0196   50.4425 C.ar    1  ZINC000624498741   -0.1900
     22 C22        -4.6930    1.0923   51.1041 C.ar    1  ZINC000624498741    0.1300
     23 O23        -3.4415    1.4958   50.7660 O.3     1  ZINC000624498741   -0.3000
     24 C24        -3.3290    2.4263   49.6872 C.3     1  ZINC000624498741    0.6000
     25 F25        -4.5607    2.5319   49.0322 F       1  ZINC000624498741   -0.1600
     26 F26        -2.9585    3.6788   50.1884 F       1  ZINC000624498741   -0.1300
     27 F27        -2.3578    1.9791   48.7850 F       1  ZINC000624498741   -0.1600
     28 H28        -4.9865    3.8342   52.3194 H       1  ZINC000624498741    0.0800
     29 H29        -5.1137    2.9510   53.8596 H       1  ZINC000624498741    0.0800
     30 H30        -3.6592    2.7730   52.8490 H       1  ZINC000624498741    0.0800
     31 H31        -7.1876    1.8517   53.2500 H       1  ZINC000624498741    0.1500
     32 H32       -12.3205   -2.0212   51.8751 H       1  ZINC000624498741    0.1000
     33 H33       -11.0255   -3.2419   51.8402 H       1  ZINC000624498741    0.1000
     34 H34       -10.9104   -3.2548   54.2829 H       1  ZINC000624498741    0.0800
     35 H35       -12.0907   -1.9258   54.3780 H       1  ZINC000624498741    0.0800
     36 H36       -13.5314   -3.6506   52.8816 H       1  ZINC000624498741    0.1100
     37 H37       -12.5169   -4.8267   53.7511 H       1  ZINC000624498741    0.1000
     38 H38       -15.4355   -3.0074   53.8541 H       1  ZINC000624498741    0.1600
     39 H39       -16.8496   -2.7241   55.8075 H       1  ZINC000624498741    0.1500
     40 H40       -15.9521   -3.2233   58.0741 H       1  ZINC000624498741    0.1400
     41 H41       -13.6342   -4.0003   58.3063 H       1  ZINC000624498741    0.1500
     42 H42        -7.0022   -1.2248   50.2653 H       1  ZINC000624498741    0.1500
     43 H43        -4.7371   -0.4892   49.6578 H       1  ZINC000624498741    0.1500
@<TRIPOS>BOND
     1     1     2    1
     2     1    28    1
     3     1    29    1
     4     1    30    1
     5     2    22   ar
     6     2     3   ar
     7     3     4   ar
     8     3    31    1
     9     4     5    1
    10     4    20   ar
    11     5    19    1
    12     5     6    2
    13     6     7    1
    14     7     8    1
    15     7    18    2
    16     8     9    1
    17     8    32    1
    18     8    33    1
    19     9    10    1
    20     9    34    1
    21     9    35    1
    22    10    11    1
    23    10    36    1
    24    10    37    1
    25    11    16   am
    26    11    12    1
    27    12    13    2
    28    12    38    1
    29    13    14    1
    30    13    39    1
    31    14    15    2
    32    14    40    1
    33    15    16    1
    34    15    41    1
    35    16    17    2
    36    18    19    1
    37    20    21   ar
    38    20    42    1
    39    21    22   ar
    40    21    43    1
    41    22    23    1
    42    23    24    1
    43    24    25    1
    44    24    26    1
    45    24    27    1
@<TRIPOS>SUBSTRUCTURE
     1 ZINC000624498741        1 TEMP              0 ****  ****    0 ROOT


##########                                Name:    ZINC000355549087
##########                DOCK_Rotatable_Bonds:                   9
##########                         Heavy_Atoms:                  23
##########                    Molecular_Weight:             336.415
##########                DOCK_Rotatable_Bonds:                   9
##########                       Formal_Charge:        -9.53674e-07
##########                     HBond_Acceptors:                   8
##########                        HBond_Donors:                   4
##########                         Heavy_Atoms:                  23
##########                          Grid_Score:          -37.049942
##########                     Grid_vdw_energy:          -34.995300
##########                      Grid_es_energy:           -2.054640
##########           Internal_energy_repulsive:            9.883303

@<TRIPOS>MOLECULE
ZINC000355549087
 43 44 1 0 0
SMALL
USER_CHARGES


@<TRIPOS>ATOM
      1 C1          2.8768    2.6025   46.2155 C.3     1  <0>        -0.1500
      2 C2          2.7520    2.0559   47.6391 C.3     1  <0>        -0.1200
      3 C3          1.4878    2.6184   48.2922 C.3     1  <0>        -0.1000
      4 H4          0.6853    2.6582   47.5556 H       1  <0>         0.0800
      5 C5          1.7687    4.0276   48.8173 C.3     1  <0>        -0.1500
      6 C6          1.0691    1.7152   49.4542 C.3     1  <0>         0.0900
      7 H7          1.1462    0.6716   49.1492 H       1  <0>         0.1000
      8 O8          1.9272    1.9494   50.5726 O.3     1  <0>        -0.3500
      9 C9          2.8753    0.9061   50.8062 C.3     1  <0>         0.0200
     10 C10        -0.3549    2.0216   49.8406 C.2     1  <0>         0.5100
     11 O11        -0.5842    2.7391   50.7912 O.2     1  <0>        -0.4800
     12 N12        -1.3736    1.4985   49.1299 N.am    1  <0>        -0.6200
     13 C13        -2.6866    1.7824   49.4853 C.2     1  <0>         0.2400
     14 N14        -3.5409    0.9099   49.9157 N.2     1  <0>        -0.5000
     15 C15        -4.7556    1.3538   50.2107 C.2     1  <0>         0.1700
     16 C16        -5.8376    0.4696   50.7143 C.2     1  <0>        -0.1100
     17 C17        -6.0714   -0.8196   50.3300 C.2     1  <0>         0.0600
     18 N18        -7.1444   -1.2849   51.0152 N.pl3   1  <0>        -0.5400
     19 C19        -7.6062   -0.2900   51.8467 C.2     1  <0>        -0.0600
     20 C20        -8.7521   -0.3897   52.7574 C.2     1  <0>         0.5900
     21 N21        -8.7622    0.3132   53.9073 N.am    1  <0>        -0.8600
     22 O22        -9.6935   -1.1071   52.4744 O.2     1  <0>        -0.5300
     23 C23        -6.8059    0.8056   51.6790 C.2     1  <0>        -0.0600
     24 C24        -4.9226    2.6741   50.0145 C.2     1  <0>        -0.3200
     25 S25        -3.4003    3.3342   49.4230 S.3     1  <0>         0.2500
     26 H26         3.7774    2.2018   45.7502 H       1  <0>         0.0600
     27 H27         2.0042    2.3047   45.6342 H       1  <0>         0.0600
     28 H28         2.9378    3.6903   46.2480 H       1  <0>         0.0600
     29 H29         2.6909    0.9682   47.6066 H       1  <0>         0.0600
     30 H30         3.6246    2.3537   48.2204 H       1  <0>         0.0700
     31 H31         2.5713    3.9877   49.5538 H       1  <0>         0.0700
     32 H32         2.0671    4.6710   47.9895 H       1  <0>         0.0600
     33 H33         0.8682    4.4283   49.2825 H       1  <0>         0.0500
     34 H34         3.4207    1.1106   51.7276 H       1  <0>         0.0900
     35 H35         2.3527   -0.0461   50.8971 H       1  <0>         0.0500
     36 H36         3.5756    0.8581   49.9724 H       1  <0>         0.0500
     37 H37        -1.1901    0.9237   48.3704 H       1  <0>         0.4200
     38 H38        -5.4978   -1.3751   49.6028 H       1  <0>         0.1800
     39 H39        -7.5247   -2.1734   50.9328 H       1  <0>         0.4200
     40 H40        -9.5204    0.2481   54.5088 H       1  <0>         0.4000
     41 H41        -8.0113    0.8841   54.1334 H       1  <0>         0.4100
     42 H42        -6.9024    1.7537   52.1872 H       1  <0>         0.1500
     43 H43        -5.8299    3.2323   50.1919 H       1  <0>         0.1800
@<TRIPOS>BOND
     1     1     2    1
     2     1    26    1
     3     1    27    1
     4     1    28    1
     5     2     3    1
     6     2    29    1
     7     2    30    1
     8     3     4    1
     9     3     5    1
    10     3     6    1
    11     5    31    1
    12     5    32    1
    13     5    33    1
    14     6     7    1
    15     6     8    1
    16     6    10    1
    17     8     9    1
    18     9    34    1
    19     9    35    1
    20     9    36    1
    21    10    11    2
    22    10    12   am
    23    12    13    1
    24    12    37    1
    25    13    25    1
    26    13    14    2
    27    14    15    1
    28    15    16    1
    29    15    24    2
    30    16    23    1
    31    16    17    2
    32    17    18    1
    33    17    38    1
    34    18    19    1
    35    18    39    1
    36    19    20    1
    37    19    23    2
    38    20    21   am
    39    20    22    2
    40    21    40    1
    41    21    41    1
    42    23    42    1
    43    24    25    1
    44    24    43    1
@<TRIPOS>SUBSTRUCTURE
     1 <0>         1 TEMP              0 ****  ****    0 ROOT


##########                                Name:    ZINC000914736341
##########                DOCK_Rotatable_Bonds:                   7
##########                         Heavy_Atoms:                  27
##########                    Molecular_Weight:             384.905
##########                DOCK_Rotatable_Bonds:                   7
##########                       Formal_Charge:                0.02
##########                     HBond_Acceptors:                   5
##########                        HBond_Donors:                   1
##########                         Heavy_Atoms:                  27
##########                          Grid_Score:          -37.049557
##########                     Grid_vdw_energy:          -36.274513
##########                      Grid_es_energy:           -0.775043
##########           Internal_energy_repulsive:           24.774458

@<TRIPOS>MOLECULE
ZINC000914736341
 52 54 1 0 0
SMALL
USER_CHARGES


@<TRIPOS>ATOM
      1 C1        -10.4598    2.7370   53.3133 C.3     1  ZINC000914736341   -0.1400
      2 C2         -9.9098    1.3092   53.3238 C.3     1  ZINC000914736341   -0.0300
      3 C3         -9.5295    0.9198   54.7537 C.3     1  ZINC000914736341   -0.1400
      4 C4        -10.9783    0.3474   52.8003 C.3     1  ZINC000914736341    0.1300
      5 N5        -10.9656   -0.8794   53.6009 N.am    1  ZINC000914736341   -0.7200
      6 C6        -11.5290   -2.0047   53.1185 C.2     1  ZINC000914736341    0.5300
      7 O7        -12.0478   -2.0014   52.0223 O.2     1  ZINC000914736341   -0.5300
      8 C8        -11.5143   -3.2672   53.9413 C.3     1  ZINC000914736341   -0.1200
      9 H9        -10.6762   -3.9045   53.6593 H       1  ZINC000914736341    0.1200
     10 C10       -12.8549   -4.0271   53.8129 C.3     1  ZINC000914736341   -0.1400
     11 C11       -13.0955   -4.5912   55.1959 C.2     1  ZINC000914736341    0.5200
     12 O12       -13.8831   -5.4755   55.4579 O.2     1  ZINC000914736341   -0.5200
     13 N13       -12.3091   -3.9701   56.0917 N.am    1  ZINC000914736341   -0.6100
     14 C14       -12.2833   -4.2792   57.5235 C.3     1  ZINC000914736341    0.1600
     15 C15       -11.2780   -3.3916   58.2111 C.ar    1  ZINC000914736341   -0.1000
     16 C16       -10.0142   -3.8718   58.4977 C.ar    1  ZINC000914736341   -0.0800
     17 C17        -9.0918   -3.0577   59.1285 C.ar    1  ZINC000914736341   -0.1100
     18 C18        -9.4330   -1.7635   59.4733 C.ar    1  ZINC000914736341   -0.1000
     19 C19       -10.6969   -1.2821   59.1871 C.ar    1  ZINC000914736341   -0.1100
     20 C20       -11.6182   -2.0941   58.5505 C.ar    1  ZINC000914736341   -0.0300
     21 Cl21      -13.2056   -1.4902   58.1908 Cl      1  ZINC000914736341   -0.0600
     22 C22       -11.4785   -2.9427   55.4512 C.3     1  ZINC000914736341    0.1000
     23 C23        -8.6905    1.2341   52.4414 C.ar    1  ZINC000914736341   -0.0700
     24 C24        -8.0640    0.0202   52.2302 C.ar    1  ZINC000914736341   -0.1200
     25 C25        -6.9455   -0.0487   51.4207 C.ar    1  ZINC000914736341   -0.1200
     26 C26        -6.4538    1.0964   50.8223 C.ar    1  ZINC000914736341   -0.1200
     27 C27        -7.0810    2.3101   51.0329 C.ar    1  ZINC000914736341   -0.1200
     28 C28        -8.2019    2.3783   51.8388 C.ar    1  ZINC000914736341   -0.1100
     29 H29        -9.6987    3.4223   53.6863 H       1  ZINC000914736341    0.0600
     30 H30       -10.7308    3.0144   52.2947 H       1  ZINC000914736341    0.0600
     31 H31       -11.3418    2.7913   53.9515 H       1  ZINC000914736341    0.0600
     32 H32       -10.4115    0.9741   55.3919 H       1  ZINC000914736341    0.0600
     33 H33        -9.1378   -0.0974   54.7612 H       1  ZINC000914736341    0.0600
     34 H34        -8.7684    1.6050   55.1267 H       1  ZINC000914736341    0.0600
     35 H35       -11.9585    0.8186   52.8730 H       1  ZINC000914736341    0.0700
     36 H36       -10.7688    0.1037   51.7587 H       1  ZINC000914736341    0.0700
     37 H37       -10.5516   -0.8818   54.4781 H       1  ZINC000914736341    0.4000
     38 H38       -13.6564   -3.3424   53.5354 H       1  ZINC000914736341    0.1100
     39 H39       -12.7690   -4.8314   53.0824 H       1  ZINC000914736341    0.1100
     40 H40       -13.2716   -4.1071   57.9502 H       1  ZINC000914736341    0.1000
     41 H41       -12.0032   -5.3230   57.6649 H       1  ZINC000914736341    0.1000
     42 H42        -9.7472   -4.8832   58.2292 H       1  ZINC000914736341    0.1400
     43 H43        -8.1042   -3.4333   59.3522 H       1  ZINC000914736341    0.1300
     44 H44        -8.7123   -1.1282   59.9667 H       1  ZINC000914736341    0.1300
     45 H45       -10.9635   -0.2708   59.4566 H       1  ZINC000914736341    0.1400
     46 H46       -10.4562   -2.9968   55.8255 H       1  ZINC000914736341    0.1000
     47 H47       -11.8959   -1.9525   55.6336 H       1  ZINC000914736341    0.0900
     48 H48        -8.4481   -0.8743   52.6977 H       1  ZINC000914736341    0.1300
     49 H49        -6.4556   -0.9970   51.2562 H       1  ZINC000914736341    0.1200
     50 H50        -5.5795    1.0426   50.1905 H       1  ZINC000914736341    0.1200
     51 H51        -6.6966    3.2047   50.5656 H       1  ZINC000914736341    0.1200
     52 H52        -8.6919    3.3266   52.0033 H       1  ZINC000914736341    0.1200
@<TRIPOS>BOND
     1     1     2    1
     2     1    29    1
     3     1    30    1
     4     1    31    1
     5     2     3    1
     6     2     4    1
     7     2    23    1
     8     3    32    1
     9     3    33    1
    10     3    34    1
    11     4     5    1
    12     4    35    1
    13     4    36    1
    14     5     6   am
    15     5    37    1
    16     6     7    2
    17     6     8    1
    18     8     9    1
    19     8    22    1
    20     8    10    1
    21    10    11    1
    22    10    38    1
    23    10    39    1
    24    11    12    2
    25    11    13   am
    26    13    14    1
    27    13    22    1
    28    14    15    1
    29    14    40    1
    30    14    41    1
    31    15    20   ar
    32    15    16   ar
    33    16    17   ar
    34    16    42    1
    35    17    18   ar
    36    17    43    1
    37    18    19   ar
    38    18    44    1
    39    19    20   ar
    40    19    45    1
    41    20    21    1
    42    22    46    1
    43    22    47    1
    44    23    28   ar
    45    23    24   ar
    46    24    25   ar
    47    24    48    1
    48    25    26   ar
    49    25    49    1
    50    26    27   ar
    51    26    50    1
    52    27    28   ar
    53    27    51    1
    54    28    52    1
@<TRIPOS>SUBSTRUCTURE
     1 ZINC000914736341        1 TEMP              0 ****  ****    0 ROOT


##########                                Name:    ZINC000373715094
##########                DOCK_Rotatable_Bonds:                   6
##########                         Heavy_Atoms:                  27
##########                    Molecular_Weight:             362.431
##########                DOCK_Rotatable_Bonds:                   6
##########                       Formal_Charge:           0.0299999
##########                     HBond_Acceptors:                   6
##########                        HBond_Donors:                   2
##########                         Heavy_Atoms:                  27
##########                          Grid_Score:          -37.045559
##########                     Grid_vdw_energy:          -34.946224
##########                      Grid_es_energy:           -2.099336
##########           Internal_energy_repulsive:           17.539099

@<TRIPOS>MOLECULE
ZINC000373715094
 49 52 1 0 0
SMALL
USER_CHARGES


@<TRIPOS>ATOM
      1 C1        -13.1465   -0.2072   57.6849 C.3     1  ZINC000373715094    0.0900
      2 N2        -12.8282   -1.0986   56.5667 N.am    1  ZINC000373715094   -0.6100
      3 C3        -13.7445   -1.6559   55.7564 C.2     1  ZINC000373715094    0.5200
      4 O4        -14.9433   -1.4982   55.8514 O.2     1  ZINC000373715094   -0.5200
      5 C5        -13.0630   -2.5082   54.7087 C.3     1  ZINC000373715094   -0.1600
      6 C6        -11.5864   -2.0509   54.7498 C.3     1  ZINC000373715094   -0.1000
      7 H7        -10.9126   -2.8944   54.5995 H       1  ZINC000373715094    0.1100
      8 C8        -11.3241   -0.9533   53.7167 C.3     1  ZINC000373715094    0.1300
      9 N9         -9.9450   -0.4773   53.8494 N.am    1  ZINC000373715094   -0.7300
     10 C10        -9.5798    0.6942   53.2920 C.2     1  ZINC000373715094    0.5200
     11 O11       -10.3934    1.3549   52.6816 O.2     1  ZINC000373715094   -0.5200
     12 C12        -8.1607    1.1830   53.4271 C.3     1  ZINC000373715094   -0.0600
     13 C13        -7.3204    0.5972   52.3218 C.2     1  ZINC000373715094    0.1200
     14 N14        -7.5468   -0.5228   51.6968 N.2     1  ZINC000373715094   -0.2300
     15 N15        -6.5571   -0.7442   50.7335 N.pl3   1  ZINC000373715094   -0.5100
     16 C16        -5.6651    0.2959   50.7604 C.ar    1  ZINC000373715094    0.1300
     17 C17        -4.5118    0.5966   50.0406 C.ar    1  ZINC000373715094   -0.1400
     18 C18        -3.8223    1.7451   50.3096 C.ar    1  ZINC000373715094   -0.0700
     19 C19        -4.2567    2.6215   51.2960 C.ar    1  ZINC000373715094   -0.1600
     20 C20        -5.3838    2.3529   52.0176 C.ar    1  ZINC000373715094   -0.0400
     21 C21        -6.1111    1.1867   51.7563 C.ar    1  ZINC000373715094   -0.1600
     22 C22       -11.4674   -1.4930   56.1835 C.3     1  ZINC000373715094    0.1800
     23 H23       -10.8015   -0.6301   56.1984 H       1  ZINC000373715094    0.1000
     24 C24       -10.9582   -2.5601   57.1178 C.ar    1  ZINC000373715094   -0.1000
     25 C25       -10.2933   -2.2046   58.2763 C.ar    1  ZINC000373715094   -0.1000
     26 C26        -9.8263   -3.1836   59.1333 C.ar    1  ZINC000373715094   -0.1200
     27 C27       -10.0245   -4.5180   58.8319 C.ar    1  ZINC000373715094   -0.1100
     28 C28       -10.6903   -4.8735   57.6738 C.ar    1  ZINC000373715094   -0.1200
     29 C29       -11.1611   -3.8946   56.8190 C.ar    1  ZINC000373715094   -0.1100
     30 H30       -13.1680    0.8241   57.3327 H       1  ZINC000373715094    0.0600
     31 H31       -14.1215   -0.4717   58.0943 H       1  ZINC000373715094    0.0800
     32 H32       -12.3868   -0.3108   58.4597 H       1  ZINC000373715094    0.0700
     33 H33       -13.1426   -3.5644   54.9653 H       1  ZINC000373715094    0.1100
     34 H34       -13.4933   -2.3201   53.7251 H       1  ZINC000373715094    0.1100
     35 H35       -11.4752   -1.3543   52.7144 H       1  ZINC000373715094    0.0700
     36 H36       -12.0122   -0.1248   53.8841 H       1  ZINC000373715094    0.0800
     37 H37        -9.2947   -1.0052   54.3387 H       1  ZINC000373715094    0.4000
     38 H38        -8.1431    2.2707   53.3594 H       1  ZINC000373715094    0.1200
     39 H39        -7.7598    0.8724   54.3919 H       1  ZINC000373715094    0.1200
     40 H40        -6.5096   -1.5111   50.1415 H       1  ZINC000373715094    0.4400
     41 H41        -4.1628   -0.0767   49.2716 H       1  ZINC000373715094    0.1300
     42 H42        -2.9282    1.9741   49.7487 H       1  ZINC000373715094    0.1300
     43 H43        -3.6972    3.5238   51.4940 H       1  ZINC000373715094    0.1300
     44 H44        -5.7151    3.0394   52.7828 H       1  ZINC000373715094    0.1300
     45 H45       -10.1384   -1.1621   58.5118 H       1  ZINC000373715094    0.1200
     46 H46        -9.3061   -2.9058   60.0382 H       1  ZINC000373715094    0.1200
     47 H47        -9.6590   -5.2829   59.5012 H       1  ZINC000373715094    0.1200
     48 H48       -10.8448   -5.9161   57.4382 H       1  ZINC000373715094    0.1300
     49 H49       -11.6812   -4.1723   55.9142 H       1  ZINC000373715094    0.1300
@<TRIPOS>BOND
     1     1     2    1
     2     1    30    1
     3     1    31    1
     4     1    32    1
     5     2    22    1
     6     2     3   am
     7     3     4    2
     8     3     5    1
     9     5     6    1
    10     5    33    1
    11     5    34    1
    12     6     7    1
    13     6     8    1
    14     6    22    1
    15     8     9    1
    16     8    35    1
    17     8    36    1
    18     9    10   am
    19     9    37    1
    20    10    11    2
    21    10    12    1
    22    12    13    1
    23    12    38    1
    24    12    39    1
    25    13    21    1
    26    13    14    2
    27    14    15    1
    28    15    16    1
    29    15    40    1
    30    16    21   ar
    31    16    17   ar
    32    17    18   ar
    33    17    41    1
    34    18    19   ar
    35    18    42    1
    36    19    20   ar
    37    19    43    1
    38    20    21   ar
    39    20    44    1
    40    22    23    1
    41    22    24    1
    42    24    29   ar
    43    24    25   ar
    44    25    26   ar
    45    25    45    1
    46    26    27   ar
    47    26    46    1
    48    27    28   ar
    49    27    47    1
    50    28    29   ar
    51    28    48    1
    52    29    49    1
@<TRIPOS>SUBSTRUCTURE
     1 ZINC000373715094        1 TEMP              0 ****  ****    0 ROOT


##########                                Name:    ZINC000762020937
##########                DOCK_Rotatable_Bonds:                  10
##########                         Heavy_Atoms:                  28
##########                    Molecular_Weight:             391.467
##########                DOCK_Rotatable_Bonds:                  10
##########                       Formal_Charge:         -1.8999e-07
##########                     HBond_Acceptors:                   8
##########                        HBond_Donors:                   1
##########                         Heavy_Atoms:                  28
##########                          Grid_Score:          -37.007729
##########                     Grid_vdw_energy:          -36.425861
##########                      Grid_es_energy:           -0.581867
##########           Internal_energy_repulsive:           28.726263

@<TRIPOS>MOLECULE
ZINC000762020937
 57 58 1 0 0
SMALL
USER_CHARGES


@<TRIPOS>ATOM
      1 C1        -13.5531   -0.6086   48.2460 C.3     1  ZINC000762020937    0.0200
      2 O2        -14.0178    0.4835   49.0420 O.3     1  ZINC000762020937   -0.3000
      3 C3        -13.0925    1.4001   49.4331 C.ar    1  ZINC000762020937    0.1100
      4 C4        -12.5835    2.3067   48.5178 C.ar    1  ZINC000762020937   -0.1700
      5 C5        -11.6429    3.2384   48.9173 C.ar    1  ZINC000762020937   -0.1000
      6 C6        -11.2084    3.2675   50.2289 C.ar    1  ZINC000762020937   -0.1000
      7 C7        -10.1829    4.2847   50.6588 C.3     1  ZINC000762020937    0.0200
      8 C8         -8.8933    3.5842   51.0009 C.2     1  ZINC000762020937    0.1900
      9 N9         -7.6849    3.9615   50.6586 N.2     1  ZINC000762020937   -0.4700
     10 C10        -6.8564    3.0398   51.1807 C.2     1  ZINC000762020937    0.1600
     11 C11        -5.3538    3.0244   51.0663 C.3     1  ZINC000762020937    0.2600
     12 H12        -4.9858    4.0463   50.9751 H       1  ZINC000762020937    0.1200
     13 N13        -4.7793    2.4034   52.2624 N.am    1  ZINC000762020937   -0.7100
     14 C14        -3.9810    3.1214   53.0772 C.2     1  ZINC000762020937    0.6600
     15 O15        -3.7390    4.2841   52.8204 O.2     1  ZINC000762020937   -0.5600
     16 O16        -3.4518    2.5502   54.1755 O.3     1  ZINC000762020937   -0.3600
     17 C17        -3.3077    3.3904   55.3509 C.3     1  ZINC000762020937    0.1400
     18 C18        -2.1272    4.3438   55.1548 C.3     1  ZINC000762020937   -0.1800
     19 C19        -4.5887    4.2007   55.5589 C.3     1  ZINC000762020937   -0.1400
     20 C20        -3.0552    2.5118   56.5779 C.3     1  ZINC000762020937   -0.1800
     21 C21        -4.9447    2.2228   49.8290 C.3     1  ZINC000762020937   -0.1000
     22 C22        -3.4522    2.4256   49.5605 C.3     1  ZINC000762020937   -0.1400
     23 C23        -5.2226    0.7375   50.0686 C.3     1  ZINC000762020937   -0.1400
     24 N24        -7.5892    2.1652   51.8024 N.2     1  ZINC000762020937   -0.3700
     25 O25        -8.7620    2.4628   51.7160 O.3     1  ZINC000762020937    0.0900
     26 C26       -11.7128    2.3656   51.1478 C.ar    1  ZINC000762020937   -0.1500
     27 C27       -12.6590    1.4331   50.7555 C.ar    1  ZINC000762020937    0.1000
     28 O28       -13.1561    0.5454   51.6579 O.3     1  ZINC000762020937   -0.3100
     29 C29       -12.2953   -0.5224   52.0593 C.3     1  ZINC000762020937    0.0200
     30 H30       -13.1128   -0.2256   47.3253 H       1  ZINC000762020937    0.0600
     31 H31       -12.8018   -1.1696   48.8020 H       1  ZINC000762020937    0.0600
     32 H32       -14.3900   -1.2635   48.0036 H       1  ZINC000762020937    0.1000
     33 H33       -12.9209    2.2857   47.4921 H       1  ZINC000762020937    0.1400
     34 H34       -11.2469    3.9447   48.2026 H       1  ZINC000762020937    0.1300
     35 H35       -10.0087    4.9906   49.8467 H       1  ZINC000762020937    0.1200
     36 H36       -10.5483    4.8213   51.5346 H       1  ZINC000762020937    0.1200
     37 H37        -4.9735    1.4755   52.4680 H       1  ZINC000762020937    0.4100
     38 H38        -2.3070    4.9696   54.2806 H       1  ZINC000762020937    0.0600
     39 H39        -2.0190    4.9744   56.0372 H       1  ZINC000762020937    0.0700
     40 H40        -1.2146    3.7664   55.0067 H       1  ZINC000762020937    0.0900
     41 H41        -5.4296    3.5215   55.6987 H       1  ZINC000762020937    0.0700
     42 H42        -4.4804    4.8315   56.4412 H       1  ZINC000762020937    0.0800
     43 H43        -4.7684    4.8266   54.6848 H       1  ZINC000762020937    0.0700
     44 H44        -2.1426    1.9344   56.4298 H       1  ZINC000762020937    0.0900
     45 H45        -2.9470    3.1425   57.4603 H       1  ZINC000762020937    0.0700
     46 H46        -3.8962    1.8327   56.7177 H       1  ZINC000762020937    0.0600
     47 H47        -5.5185    2.5655   48.9679 H       1  ZINC000762020937    0.0800
     48 H48        -2.8783    2.0828   50.4215 H       1  ZINC000762020937    0.0600
     49 H49        -3.1607    1.8545   48.6790 H       1  ZINC000762020937    0.0600
     50 H50        -3.2542    3.4837   49.3898 H       1  ZINC000762020937    0.0500
     51 H51        -6.2860    0.5930   50.2599 H       1  ZINC000762020937    0.0500
     52 H52        -4.9312    0.1664   49.1872 H       1  ZINC000762020937    0.0600
     53 H53        -4.6488    0.3948   50.9296 H       1  ZINC000762020937    0.0700
     54 H54       -11.3715    2.3905   52.1722 H       1  ZINC000762020937    0.1400
     55 H55       -11.3959   -0.1112   52.5177 H       1  ZINC000762020937    0.0600
     56 H56       -12.8134   -1.1555   52.7796 H       1  ZINC000762020937    0.1000
     57 H57       -12.0201   -1.1148   51.1867 H       1  ZINC000762020937    0.0600
@<TRIPOS>BOND
     1     1     2    1
     2     1    30    1
     3     1    31    1
     4     1    32    1
     5     2     3    1
     6     3    27   ar
     7     3     4   ar
     8     4     5   ar
     9     4    33    1
    10     5     6   ar
    11     5    34    1
    12     6     7    1
    13     6    26   ar
    14     7     8    1
    15     7    35    1
    16     7    36    1
    17     8    25    1
    18     8     9    2
    19     9    10    1
    20    10    11    1
    21    10    24    2
    22    11    12    1
    23    11    13    1
    24    11    21    1
    25    13    14   am
    26    13    37    1
    27    14    15    2
    28    14    16    1
    29    16    17    1
    30    17    18    1
    31    17    19    1
    32    17    20    1
    33    18    38    1
    34    18    39    1
    35    18    40    1
    36    19    41    1
    37    19    42    1
    38    19    43    1
    39    20    44    1
    40    20    45    1
    41    20    46    1
    42    21    22    1
    43    21    23    1
    44    21    47    1
    45    22    48    1
    46    22    49    1
    47    22    50    1
    48    23    51    1
    49    23    52    1
    50    23    53    1
    51    24    25    1
    52    26    27   ar
    53    26    54    1
    54    27    28    1
    55    28    29    1
    56    29    55    1
    57    29    56    1
    58    29    57    1
@<TRIPOS>SUBSTRUCTURE
     1 ZINC000762020937        1 TEMP              0 ****  ****    0 ROOT


##########                                Name:    ZINC000929592477
##########                DOCK_Rotatable_Bonds:                   7
##########                         Heavy_Atoms:                  28
##########                    Molecular_Weight:             399.517
##########                DOCK_Rotatable_Bonds:                   7
##########                       Formal_Charge:         -8.9407e-08
##########                     HBond_Acceptors:                   8
##########                        HBond_Donors:                   3
##########                         Heavy_Atoms:                  28
##########                          Grid_Score:          -37.004436
##########                     Grid_vdw_energy:          -36.024872
##########                      Grid_es_energy:           -0.979565
##########           Internal_energy_repulsive:           13.518070

@<TRIPOS>MOLECULE
ZINC000929592477
 53 56 1 0 0
SMALL
USER_CHARGES


@<TRIPOS>ATOM
      1 O1         -9.8457    0.4159   53.7124 O.2     1  ZINC000929592477   -0.5700
      2 C2        -10.0375    1.4611   54.3034 C.2     1  ZINC000929592477    0.7100
      3 N3         -9.3547    2.5688   53.9522 N.am    1  ZINC000929592477   -0.6800
      4 C4         -8.4193    2.5146   52.9094 C.ar    1  ZINC000929592477    0.1600
      5 C5         -7.0896    2.2241   53.1840 C.ar    1  ZINC000929592477   -0.1300
      6 C6         -6.1681    2.1711   52.1575 C.ar    1  ZINC000929592477   -0.0800
      7 C7         -6.5715    2.4080   50.8492 C.ar    1  ZINC000929592477   -0.1000
      8 S8         -5.3960    2.3398   49.5384 S.3     1  ZINC000929592477   -0.1100
      9 C9         -3.8203    2.1354   50.4136 C.3     1  ZINC000929592477   -0.0800
     10 C10        -2.6757    1.8500   49.4099 C.3     1  ZINC000929592477   -0.1200
     11 C11        -1.4165    2.3040   50.1891 C.3     1  ZINC000929592477   -0.1200
     12 C12        -1.8772    3.5633   50.9518 C.3     1  ZINC000929592477   -0.1200
     13 C13        -3.4056    3.4561   51.0946 C.3     1  ZINC000929592477   -0.1000
     14 C14        -7.9022    2.6982   50.5747 C.ar    1  ZINC000929592477   -0.1200
     15 C15        -8.8240    2.7458   51.6014 C.ar    1  ZINC000929592477   -0.1000
     16 N16       -10.9367    1.5132   55.3060 N.am    1  ZINC000929592477   -0.7300
     17 C17       -11.6788    0.3092   55.6877 C.3     1  ZINC000929592477    0.1500
     18 H18       -12.1418   -0.1499   54.8142 H       1  ZINC000929592477    0.1200
     19 C19       -12.7459    0.6403   56.7643 C.3     1  ZINC000929592477   -0.1400
     20 C20       -11.8990    0.6102   58.0611 C.3     1  ZINC000929592477    0.1100
     21 N21       -10.9346   -0.4858   57.8567 N.pl3   1  ZINC000929592477   -0.6000
     22 C22       -10.3041   -1.1990   58.8557 C.2     1  ZINC000929592477    0.4600
     23 C23        -9.9024   -2.5055   58.6325 C.2     1  ZINC000929592477   -0.4000
     24 C24        -9.2652   -3.1948   59.6735 C.2     1  ZINC000929592477    0.5300
     25 O25        -8.8942   -4.3478   59.5205 O.2     1  ZINC000929592477   -0.5500
     26 N26        -9.0695   -2.5596   60.8479 N.am    1  ZINC000929592477   -0.6400
     27 C27        -9.4816   -1.2864   61.0094 C.2     1  ZINC000929592477    0.4100
     28 N28       -10.0710   -0.6294   60.0486 N.2     1  ZINC000929592477   -0.5700
     29 C29       -10.7554   -0.6960   56.4079 C.3     1  ZINC000929592477    0.1100
     30 H30        -9.5105    3.4036   54.4211 H       1  ZINC000929592477    0.4100
     31 H31        -6.7761    2.0400   54.2009 H       1  ZINC000929592477    0.1300
     32 H32        -5.1338    1.9458   52.3713 H       1  ZINC000929592477    0.1300
     33 H33        -3.8944    1.3341   51.1488 H       1  ZINC000929592477    0.1000
     34 H34        -2.6230    0.7865   49.1765 H       1  ZINC000929592477    0.0700
     35 H35        -2.8018    2.4400   48.5021 H       1  ZINC000929592477    0.0800
     36 H36        -1.1002    1.5293   50.8877 H       1  ZINC000929592477    0.0700
     37 H37        -0.6091    2.5498   49.4994 H       1  ZINC000929592477    0.0700
     38 H38        -1.4115    3.5945   51.9368 H       1  ZINC000929592477    0.0700
     39 H39        -1.6169    4.4582   50.3867 H       1  ZINC000929592477    0.0700
     40 H40        -3.8870    4.2990   50.5987 H       1  ZINC000929592477    0.0700
     41 H41        -3.6816    3.4353   52.1488 H       1  ZINC000929592477    0.0800
     42 H42        -8.2163    2.8823   49.5579 H       1  ZINC000929592477    0.1300
     43 H43        -9.8585    2.9710   51.3881 H       1  ZINC000929592477    0.1400
     44 H44       -11.0924    2.3480   55.7748 H       1  ZINC000929592477    0.4000
     45 H45       -13.1732    1.6295   56.5995 H       1  ZINC000929592477    0.0900
     46 H46       -13.5254   -0.1211   56.7889 H       1  ZINC000929592477    0.0900
     47 H47       -11.3752    1.5567   58.1940 H       1  ZINC000929592477    0.0700
     48 H48       -12.5327    0.4021   58.9232 H       1  ZINC000929592477    0.0800
     49 H49       -10.0762   -2.9820   57.6791 H       1  ZINC000929592477    0.1500
     50 H50        -8.6306   -3.0215   61.5793 H       1  ZINC000929592477    0.4200
     51 H51        -9.3157   -0.7960   61.9572 H       1  ZINC000929592477    0.2100
     52 H52       -11.0357   -1.7156   56.1437 H       1  ZINC000929592477    0.0900
     53 H53        -9.7172   -0.5113   56.1321 H       1  ZINC000929592477    0.0800
@<TRIPOS>BOND
     1     1     2    2
     2     2     3   am
     3     2    16   am
     4     3     4    1
     5     3    30    1
     6     4    15   ar
     7     4     5   ar
     8     5     6   ar
     9     5    31    1
    10     6     7   ar
    11     6    32    1
    12     7     8    1
    13     7    14   ar
    14     8     9    1
    15     9    13    1
    16     9    10    1
    17     9    33    1
    18    10    11    1
    19    10    34    1
    20    10    35    1
    21    11    12    1
    22    11    36    1
    23    11    37    1
    24    12    13    1
    25    12    38    1
    26    12    39    1
    27    13    40    1
    28    13    41    1
    29    14    15   ar
    30    14    42    1
    31    15    43    1
    32    16    17    1
    33    16    44    1
    34    17    18    1
    35    17    29    1
    36    17    19    1
    37    19    20    1
    38    19    45    1
    39    19    46    1
    40    20    21    1
    41    20    47    1
    42    20    48    1
    43    21    22    1
    44    21    29    1
    45    22    28    1
    46    22    23    2
    47    23    24    1
    48    23    49    1
    49    24    25    2
    50    24    26   am
    51    26    27    1
    52    26    50    1
    53    27    28    2
    54    27    51    1
    55    29    52    1
    56    29    53    1
@<TRIPOS>SUBSTRUCTURE
     1 ZINC000929592477        1 TEMP              0 ****  ****    0 ROOT


##########                                Name:    ZINC000980108339
##########                DOCK_Rotatable_Bonds:                   9
##########                         Heavy_Atoms:                  25
##########                    Molecular_Weight:             348.445
##########                DOCK_Rotatable_Bonds:                   9
##########                       Formal_Charge:          -0.0100001
##########                     HBond_Acceptors:                   7
##########                        HBond_Donors:                   3
##########                         Heavy_Atoms:                  25
##########                          Grid_Score:          -37.003414
##########                     Grid_vdw_energy:          -35.403831
##########                      Grid_es_energy:           -1.599582
##########           Internal_energy_repulsive:            5.688086

@<TRIPOS>MOLECULE
ZINC000980108339
 53 56 1 0 0
SMALL
USER_CHARGES


@<TRIPOS>ATOM
      1 C1         -8.6081   -3.5276   59.5392 C.3     1  ZINC000980108339    0.1200
      2 N2         -9.7269   -2.6903   59.0994 N.am    1  ZINC000980108339   -0.6400
      3 C3        -10.1082   -1.3987   59.6902 C.3     1  ZINC000980108339    0.1100
      4 C4        -11.3301   -0.9595   58.8602 C.3     1  ZINC000980108339    0.1000
      5 H5        -12.2107   -0.8657   59.4957 H       1  ZINC000980108339    0.1200
      6 C6        -11.0490    0.3413   58.1529 C.2     1  ZINC000980108339    0.5000
      7 O7        -11.4398    1.3865   58.6280 O.2     1  ZINC000980108339   -0.5200
      8 N8        -10.3634    0.3431   56.9926 N.am    1  ZINC000980108339   -0.7200
      9 C9        -10.0917    1.6074   56.3043 C.3     1  ZINC000980108339    0.1300
     10 C10        -9.2635    1.3358   55.0468 C.3     1  ZINC000980108339   -0.1200
     11 H11        -8.4484    0.6331   55.2204 H       1  ZINC000980108339    0.1000
     12 C12       -10.1134    1.0000   53.8100 C.3     1  ZINC000980108339   -0.1400
     13 C13        -9.1305    1.8603   52.9984 C.3     1  ZINC000980108339    0.1200
     14 H14        -9.6132    2.4773   52.2405 H       1  ZINC000980108339    0.1100
     15 N15        -7.9862    1.1093   52.4762 N.am    1  ZINC000980108339   -0.7200
     16 C16        -7.3367    1.5470   51.3795 C.2     1  ZINC000980108339    0.5200
     17 O17        -7.6986    2.5635   50.8256 O.2     1  ZINC000980108339   -0.5300
     18 C18        -6.1605    0.7735   50.8412 C.3     1  ZINC000980108339   -0.1100
     19 C19        -5.1503    1.7439   50.2261 C.3     1  ZINC000980108339   -0.1300
     20 H20        -5.5740    2.5306   49.6017 H       1  ZINC000980108339    0.1200
     21 C21        -3.7850    1.1819   49.8247 C.3     1  ZINC000980108339   -0.1700
     22 C22        -3.9091    2.0888   51.0517 C.3     1  ZINC000980108339   -0.1200
     23 H23        -3.8121    1.6241   52.0329 H       1  ZINC000980108339    0.1000
     24 C24        -3.3568    3.5110   50.9375 C.3     1  ZINC000980108339   -0.1300
     25 C25        -2.3555    3.9674   52.0006 C.3     1  ZINC000980108339   -0.1800
     26 C26        -1.8779    3.6679   50.5782 C.3     1  ZINC000980108339   -0.1800
     27 C27        -8.8291    2.6123   54.3075 C.3     1  ZINC000980108339   -0.1400
     28 N28       -11.5075   -2.0501   57.8899 N.am    1  ZINC000980108339   -0.7200
     29 C29       -10.5614   -2.9768   58.0916 C.2     1  ZINC000980108339    0.7000
     30 O30       -10.4739   -3.9905   57.4261 O.2     1  ZINC000980108339   -0.5800
     31 H31        -8.5585   -4.4228   58.9192 H       1  ZINC000980108339    0.0900
     32 H32        -7.6770   -2.9687   59.4453 H       1  ZINC000980108339    0.0600
     33 H33        -8.7563   -3.8145   60.5803 H       1  ZINC000980108339    0.0600
     34 H34       -10.3821   -1.5232   60.7379 H       1  ZINC000980108339    0.1000
     35 H35        -9.2974   -0.6774   59.5887 H       1  ZINC000980108339    0.0900
     36 H36       -10.0497   -0.4928   56.6133 H       1  ZINC000980108339    0.4000
     37 H37       -11.0338    2.0783   56.0240 H       1  ZINC000980108339    0.0700
     38 H38        -9.5373    2.2707   56.9682 H       1  ZINC000980108339    0.0700
     39 H39       -10.0945   -0.0561   53.5407 H       1  ZINC000980108339    0.0800
     40 H40       -11.1227    1.4098   53.8495 H       1  ZINC000980108339    0.1000
     41 H41        -7.6959    0.2970   52.9199 H       1  ZINC000980108339    0.4000
     42 H42        -5.6865    0.2216   51.6529 H       1  ZINC000980108339    0.1000
     43 H43        -6.5038    0.0745   50.0786 H       1  ZINC000980108339    0.1000
     44 H44        -3.6066    0.1207   49.9990 H       1  ZINC000980108339    0.0900
     45 H45        -3.3104    1.5990   48.9366 H       1  ZINC000980108339    0.1000
     46 H46        -4.0512    4.2551   50.5473 H       1  ZINC000980108339    0.1000
     47 H47        -2.3911    5.0121   52.3100 H       1  ZINC000980108339    0.0900
     48 H48        -2.0903    3.2545   52.7811 H       1  ZINC000980108339    0.0900
     49 H49        -1.2984    2.7578   50.4230 H       1  ZINC000980108339    0.0900
     50 H50        -1.5993    4.5154   49.9519 H       1  ZINC000980108339    0.0900
     51 H51        -9.4871    3.4633   54.4836 H       1  ZINC000980108339    0.1000
     52 H52        -7.7750    2.8570   54.4378 H       1  ZINC000980108339    0.0800
     53 H53       -12.1973   -2.0901   57.2092 H       1  ZINC000980108339    0.4400
@<TRIPOS>BOND
     1     1     2    1
     2     1    31    1
     3     1    32    1
     4     1    33    1
     5     2    29   am
     6     2     3    1
     7     3     4    1
     8     3    34    1
     9     3    35    1
    10     4     5    1
    11     4     6    1
    12     4    28    1
    13     6     7    2
    14     6     8   am
    15     8     9    1
    16     8    36    1
    17     9    10    1
    18     9    37    1
    19     9    38    1
    20    10    11    1
    21    10    27    1
    22    10    12    1
    23    12    13    1
    24    12    39    1
    25    12    40    1
    26    13    14    1
    27    13    15    1
    28    13    27    1
    29    15    16   am
    30    15    41    1
    31    16    17    2
    32    16    18    1
    33    18    19    1
    34    18    42    1
    35    18    43    1
    36    19    20    1
    37    19    22    1
    38    19    21    1
    39    21    22    1
    40    21    44    1
    41    21    45    1
    42    22    23    1
    43    22    24    1
    44    24    26    1
    45    24    25    1
    46    24    46    1
    47    25    26    1
    48    25    47    1
    49    25    48    1
    50    26    49    1
    51    26    50    1
    52    27    51    1
    53    27    52    1
    54    28    29   am
    55    28    53    1
    56    29    30    2
@<TRIPOS>SUBSTRUCTURE
     1 ZINC000980108339        1 TEMP              0 ****  ****    0 ROOT


##########                                Name:    ZINC000995593866
##########                DOCK_Rotatable_Bonds:                   7
##########                         Heavy_Atoms:                  24
##########                    Molecular_Weight:             342.389
##########                DOCK_Rotatable_Bonds:                   7
##########                       Formal_Charge:                0.03
##########                     HBond_Acceptors:                   8
##########                        HBond_Donors:                   1
##########                         Heavy_Atoms:                  24
##########                          Grid_Score:          -36.962894
##########                     Grid_vdw_energy:          -34.743912
##########                      Grid_es_energy:           -2.218982
##########           Internal_energy_repulsive:            9.165256

@<TRIPOS>MOLECULE
ZINC000995593866
 48 50 1 0 0
SMALL
USER_CHARGES


@<TRIPOS>ATOM
      1 C1         -8.8400    2.9031   51.7970 C.3     1  ZINC000995593866   -0.1400
      2 C2         -7.7786    2.0470   52.4911 C.3     1  ZINC000995593866   -0.0800
      3 C3         -6.7865    2.9371   53.2422 C.3     1  ZINC000995593866   -0.1400
      4 C4         -8.4454    1.0464   53.4595 C.3     1  ZINC000995593866    0.1200
      5 N5         -8.5810   -0.2015   52.6727 N.am    1  ZINC000995593866   -0.6300
      6 C6         -9.6150   -1.0661   52.6657 C.2     1  ZINC000995593866    0.5400
      7 O7         -9.5768   -2.0513   51.9593 O.2     1  ZINC000995593866   -0.5300
      8 C8        -10.8184   -0.8086   53.5354 C.3     1  ZINC000995593866   -0.1300
      9 C9        -11.9939   -1.6553   53.0431 C.3     1  ZINC000995593866   -0.1000
     10 C10       -12.0150   -3.0782   53.6262 C.3     1  ZINC000995593866   -0.1300
     11 C11       -13.5400   -2.9217   53.7466 C.3     1  ZINC000995593866   -0.1400
     12 C12       -13.2998   -1.4043   53.8154 C.3     1  ZINC000995593866   -0.1400
     13 C13        -7.3225   -0.2834   51.8955 C.3     1  ZINC000995593866    0.1100
     14 C14        -7.0383    1.1702   51.4598 C.3     1  ZINC000995593866    0.0800
     15 H15        -7.4307    1.3493   50.4588 H       1  ZINC000995593866    0.0700
     16 N16        -5.5951    1.4418   51.4977 N.3     1  ZINC000995593866   -0.6800
     17 C17        -5.0427    1.5432   50.1403 C.3     1  ZINC000995593866    0.1500
     18 C18        -3.5841    1.9139   50.2180 C.2     1  ZINC000995593866    0.1900
     19 N19        -2.6861    1.7524   49.2762 N.2     1  ZINC000995593866   -0.4300
     20 C20        -1.5350    2.2227   49.7890 C.2     1  ZINC000995593866    0.0900
     21 C21        -0.1987    2.2610   49.0935 C.3     1  ZINC000995593866    0.3800
     22 F22         0.4970    3.4105   49.4832 F       1  ZINC000995593866   -0.1800
     23 F23         0.5418    1.1267   49.4434 F       1  ZINC000995593866   -0.1700
     24 N24        -1.7872    2.6384   50.9941 N.2     1  ZINC000995593866   -0.3400
     25 O25        -2.9598    2.4753   51.2578 O.3     1  ZINC000995593866    0.1000
     26 H26        -9.5609    2.2549   51.2988 H       1  ZINC000995593866    0.0600
     27 H27        -9.3535    3.5161   52.5376 H       1  ZINC000995593866    0.0600
     28 H28        -8.3615    3.5482   51.0601 H       1  ZINC000995593866    0.0600
     29 H29        -7.3205    3.5308   53.9842 H       1  ZINC000995593866    0.0700
     30 H30        -6.0446    2.3136   53.7413 H       1  ZINC000995593866    0.0700
     31 H31        -6.2875    3.6011   52.5364 H       1  ZINC000995593866    0.0600
     32 H32        -7.8109    0.8798   54.3300 H       1  ZINC000995593866    0.0800
     33 H33        -9.4257    1.4106   53.7667 H       1  ZINC000995593866    0.0900
     34 H34       -10.5853   -1.0751   54.5663 H       1  ZINC000995593866    0.0900
     35 H35       -11.0845    0.2471   53.4843 H       1  ZINC000995593866    0.0900
     36 H36       -12.1140   -1.6239   51.9603 H       1  ZINC000995593866    0.1000
     37 H37       -11.7096   -3.8459   52.9152 H       1  ZINC000995593866    0.0700
     38 H38       -11.5076   -3.1639   54.5871 H       1  ZINC000995593866    0.0800
     39 H39       -14.0831   -3.2379   52.8560 H       1  ZINC000995593866    0.0800
     40 H40       -13.9508   -3.3407   54.6651 H       1  ZINC000995593866    0.0700
     41 H41       -13.1438   -1.0324   54.8280 H       1  ZINC000995593866    0.0800
     42 H42       -14.0319   -0.8206   53.2571 H       1  ZINC000995593866    0.0700
     43 H43        -6.5127   -0.6578   52.5217 H       1  ZINC000995593866    0.0900
     44 H44        -7.4558   -0.9226   51.0227 H       1  ZINC000995593866    0.0800
     45 H45        -5.3979    2.2748   52.0316 H       1  ZINC000995593866    0.3600
     46 H46        -5.1473    0.5843   49.6328 H       1  ZINC000995593866    0.1200
     47 H47        -5.5832    2.3093   49.5845 H       1  ZINC000995593866    0.0800
     48 H48        -0.3510    2.2768   48.0144 H       1  ZINC000995593866    0.1500
@<TRIPOS>BOND
     1     1     2    1
     2     1    26    1
     3     1    27    1
     4     1    28    1
     5     2    14    1
     6     2     3    1
     7     2     4    1
     8     3    29    1
     9     3    30    1
    10     3    31    1
    11     4     5    1
    12     4    32    1
    13     4    33    1
    14     5     6   am
    15     5    13    1
    16     6     7    2
    17     6     8    1
    18     8     9    1
    19     8    34    1
    20     8    35    1
    21     9    12    1
    22     9    10    1
    23     9    36    1
    24    10    11    1
    25    10    37    1
    26    10    38    1
    27    11    12    1
    28    11    39    1
    29    11    40    1
    30    12    41    1
    31    12    42    1
    32    13    14    1
    33    13    43    1
    34    13    44    1
    35    14    15    1
    36    14    16    1
    37    16    17    1
    38    16    45    1
    39    17    18    1
    40    17    46    1
    41    17    47    1
    42    18    25    1
    43    18    19    2
    44    19    20    1
    45    20    21    1
    46    20    24    2
    47    21    22    1
    48    21    23    1
    49    21    48    1
    50    24    25    1
@<TRIPOS>SUBSTRUCTURE
     1 ZINC000995593866        1 TEMP              0 ****  ****    0 ROOT


##########                                Name:    ZINC000432833246
##########                DOCK_Rotatable_Bonds:                   5
##########                         Heavy_Atoms:                  25
##########                    Molecular_Weight:             400.318
##########                DOCK_Rotatable_Bonds:                   5
##########                       Formal_Charge:        -3.20375e-07
##########                     HBond_Acceptors:                   4
##########                        HBond_Donors:                   1
##########                         Heavy_Atoms:                  25
##########                          Grid_Score:          -36.953606
##########                     Grid_vdw_energy:          -35.015129
##########                      Grid_es_energy:           -1.938478
##########           Internal_energy_repulsive:           10.032240

@<TRIPOS>MOLECULE
ZINC000432833246
 47 51 1 0 0
SMALL
USER_CHARGES


@<TRIPOS>ATOM
      1 O1         -5.6384    3.4705   53.0273 O.2     1  ZINC000432833246   -0.5200
      2 C2         -6.6129    2.8011   53.2980 C.2     1  ZINC000432833246    0.5200
      3 C3         -7.3218    2.8036   54.6345 C.3     1  ZINC000432833246   -0.1500
      4 C4         -8.6889    2.1439   54.3398 C.3     1  ZINC000432833246   -0.1100
      5 H5         -9.4437    2.8962   54.1109 H       1  ZINC000432833246    0.1000
      6 C6         -9.1347    1.2626   55.5083 C.3     1  ZINC000432833246    0.1300
      7 N7        -10.2846    0.4527   55.0982 N.pl3   1  ZINC000432833246   -0.7200
      8 C8        -10.7373   -0.5722   55.9151 C.ar    1  ZINC000432833246    0.2800
      9 C9        -11.5330   -1.6215   55.3967 C.ar    1  ZINC000432833246   -0.1500
     10 C10       -11.8917   -1.6644   54.0422 C.ar    1  ZINC000432833246   -0.0700
     11 C11       -12.6588   -2.6914   53.5803 C.ar    1  ZINC000432833246   -0.1300
     12 C12       -13.0921   -3.7001   54.4372 C.ar    1  ZINC000432833246   -0.0600
     13 C13       -12.7616   -3.6887   55.7586 C.ar    1  ZINC000432833246   -0.0800
     14 Br14      -13.3634   -5.0717   56.8994 Br      1  ZINC000432833246   -0.0300
     15 C15       -11.9706   -2.6448   56.2709 C.ar    1  ZINC000432833246    0.1900
     16 N16       -11.6308   -2.6090   57.5643 N.ar    1  ZINC000432833246   -0.5000
     17 C17       -10.8929   -1.6412   58.0567 C.ar    1  ZINC000432833246    0.2400
     18 C18       -10.5450   -1.6593   59.5228 C.3     1  ZINC000432833246   -0.1100
     19 C19        -9.9905   -2.9627   60.1013 C.3     1  ZINC000432833246   -0.1700
     20 C20        -9.0648   -1.7618   59.8965 C.3     1  ZINC000432833246   -0.1600
     21 C21       -10.4202   -0.6045   57.2641 C.ar    1  ZINC000432833246   -0.2700
     22 C22        -8.3644    1.2896   53.0943 C.3     1  ZINC000432833246    0.1100
     23 N23        -7.2237    1.9534   52.4523 N.am    1  ZINC000432833246   -0.5900
     24 C24        -6.7998    1.7159   51.0703 C.3     1  ZINC000432833246    0.0800
     25 C25        -5.2988    1.7506   50.7758 C.3     1  ZINC000432833246   -0.1900
     26 C26        -6.0479    0.4165   50.7753 C.3     1  ZINC000432833246   -0.1900
     27 H27        -6.7638    2.2159   55.3634 H       1  ZINC000432833246    0.1100
     28 H28        -7.4597    3.8243   54.9911 H       1  ZINC000432833246    0.1000
     29 H29        -8.3150    0.6071   55.8024 H       1  ZINC000432833246    0.0800
     30 H30        -9.4165    1.8929   56.3518 H       1  ZINC000432833246    0.0700
     31 H31       -10.7292    0.6335   54.2553 H       1  ZINC000432833246    0.4000
     32 H32       -11.5620   -0.8874   53.3685 H       1  ZINC000432833246    0.1300
     33 H33       -12.9345   -2.7234   52.5365 H       1  ZINC000432833246    0.1400
     34 H34       -13.6999   -4.5034   54.0481 H       1  ZINC000432833246    0.1400
     35 H35       -11.1856   -1.0555   60.1656 H       1  ZINC000432833246    0.1300
     36 H36       -10.2664   -3.2167   61.1248 H       1  ZINC000432833246    0.1000
     37 H37        -9.8773   -3.8071   59.4214 H       1  ZINC000432833246    0.1000
     38 H38        -8.3427   -1.8162   59.0818 H       1  ZINC000432833246    0.0900
     39 H39        -8.7318   -1.2257   60.7852 H       1  ZINC000432833246    0.1000
     40 H40        -9.8148    0.1774   57.6979 H       1  ZINC000432833246    0.1400
     41 H41        -8.0970    0.2756   53.3917 H       1  ZINC000432833246    0.0800
     42 H42        -9.2177    1.2719   52.4163 H       1  ZINC000432833246    0.0900
     43 H43        -7.4728    2.0937   50.3006 H       1  ZINC000432833246    0.1300
     44 H44        -4.9840    2.1515   49.8123 H       1  ZINC000432833246    0.1000
     45 H45        -4.6267    1.9501   51.6104 H       1  ZINC000432833246    0.1300
     46 H46        -5.8685   -0.2617   51.6095 H       1  ZINC000432833246    0.0900
     47 H47        -6.2259   -0.0603   49.8114 H       1  ZINC000432833246    0.1000
@<TRIPOS>BOND
     1     1     2    2
     2     2    23   am
     3     2     3    1
     4     3     4    1
     5     3    27    1
     6     3    28    1
     7     4     5    1
     8     4     6    1
     9     4    22    1
    10     6     7    1
    11     6    29    1
    12     6    30    1
    13     7     8    1
    14     7    31    1
    15     8    21   ar
    16     8     9   ar
    17     9    15   ar
    18     9    10   ar
    19    10    11   ar
    20    10    32    1
    21    11    12   ar
    22    11    33    1
    23    12    13   ar
    24    12    34    1
    25    13    14    1
    26    13    15   ar
    27    15    16   ar
    28    16    17   ar
    29    17    18    1
    30    17    21   ar
    31    18    20    1
    32    18    19    1
    33    18    35    1
    34    19    20    1
    35    19    36    1
    36    19    37    1
    37    20    38    1
    38    20    39    1
    39    21    40    1
    40    22    23    1
    41    22    41    1
    42    22    42    1
    43    23    24    1
    44    24    26    1
    45    24    25    1
    46    24    43    1
    47    25    26    1
    48    25    44    1
    49    25    45    1
    50    26    46    1
    51    26    47    1
@<TRIPOS>SUBSTRUCTURE
     1 ZINC000432833246        1 TEMP              0 ****  ****    0 ROOT


##########                                Name:    ZINC000440379747
##########                DOCK_Rotatable_Bonds:                   8
##########                         Heavy_Atoms:                  27
##########                    Molecular_Weight:             394.452
##########                DOCK_Rotatable_Bonds:                   8
##########                       Formal_Charge:           0.0199995
##########                     HBond_Acceptors:                  10
##########                        HBond_Donors:                   3
##########                         Heavy_Atoms:                  27
##########                          Grid_Score:          -36.949085
##########                     Grid_vdw_energy:          -36.264095
##########                      Grid_es_energy:           -0.684991
##########           Internal_energy_repulsive:           19.367746

@<TRIPOS>MOLECULE
ZINC000440379747
 49 51 1 0 0
SMALL
USER_CHARGES


@<TRIPOS>ATOM
      1 C1         -3.8096    2.4286   49.1585 C.3     1  ZINC000440379747   -0.1800
      2 C2         -4.7394    1.4675   49.8533 C.2     1  ZINC000440379747    0.5200
      3 O3         -4.5607    0.2719   49.7539 O.2     1  ZINC000440379747   -0.5200
      4 N4         -5.7696    1.9364   50.5850 N.am    1  ZINC000440379747   -0.5500
      5 C5         -6.0862    3.3540   50.7782 C.3     1  ZINC000440379747    0.1100
      6 C6         -7.3334    3.3701   51.6769 C.3     1  ZINC000440379747   -0.0900
      7 C7         -7.6382    1.9112   51.9327 C.ar    1  ZINC000440379747   -0.1100
      8 C8         -8.6404    1.3129   52.6699 C.ar    1  ZINC000440379747   -0.0700
      9 C9         -8.7108   -0.0719   52.7548 C.ar    1  ZINC000440379747    0.1200
     10 N10        -9.7255   -0.6796   53.5006 N.am    1  ZINC000440379747   -0.6400
     11 C11       -10.5241   -1.6012   52.9267 C.2     1  ZINC000440379747    0.5100
     12 O12       -10.3625   -1.9035   51.7623 O.2     1  ZINC000440379747   -0.4900
     13 C13       -11.6077   -2.2501   53.7233 C.2     1  ZINC000440379747    0.5200
     14 O14       -11.3894   -3.2888   54.3118 O.2     1  ZINC000440379747   -0.5100
     15 N15       -12.8283   -1.6823   53.7887 N.am    1  ZINC000440379747   -0.5800
     16 C16       -13.2289   -0.4277   53.1260 C.3     1  ZINC000440379747    0.1000
     17 C17       -14.7670   -0.5328   52.9748 C.3     1  ZINC000440379747   -0.1300
     18 C18       -15.1617   -1.2469   54.2945 C.3     1  ZINC000440379747   -0.1600
     19 C19       -13.9825   -2.2147   54.5274 C.3     1  ZINC000440379747    0.1500
     20 H20       -14.2393   -3.2076   54.1581 H       1  ZINC000440379747    0.1000
     21 C21       -13.6532   -2.2840   56.0200 C.3     1  ZINC000440379747   -0.6500
     22 S22       -14.6979   -3.5378   56.8120 S.o2    1  ZINC000440379747    2.6200
     23 N23       -14.4979   -4.8914   55.8793 N.am    1  ZINC000440379747   -1.2500
     24 O24       -14.1657   -3.9029   58.0781 O.2     1  ZINC000440379747   -0.9500
     25 O25       -16.0721   -3.2089   56.6621 O.2     1  ZINC000440379747   -0.9500
     26 C26        -7.7682   -0.8501   52.0945 C.ar    1  ZINC000440379747   -0.1000
     27 C27        -6.7689   -0.2509   51.3593 C.ar    1  ZINC000440379747   -0.1400
     28 C28        -6.6975    1.1405   51.2666 C.ar    1  ZINC000440379747    0.1400
     29 H29        -3.0446    1.8691   48.6203 H       1  ZINC000440379747    0.1000
     30 H30        -4.3766    3.0381   48.4549 H       1  ZINC000440379747    0.1000
     31 H31        -3.3352    3.0738   49.8979 H       1  ZINC000440379747    0.1000
     32 H32        -5.2579    3.8624   51.2718 H       1  ZINC000440379747    0.0900
     33 H33        -6.3042    3.8266   49.8206 H       1  ZINC000440379747    0.0900
     34 H34        -7.1198    3.8839   52.6143 H       1  ZINC000440379747    0.0900
     35 H35        -8.1667    3.8480   51.1619 H       1  ZINC000440379747    0.1000
     36 H36        -9.3705    1.9223   53.1816 H       1  ZINC000440379747    0.1400
     37 H37        -9.8546   -0.4378   54.4311 H       1  ZINC000440379747    0.4200
     38 H38       -12.9664    0.4294   53.7460 H       1  ZINC000440379747    0.0800
     39 H39       -12.7560   -0.3480   52.1471 H       1  ZINC000440379747    0.1000
     40 H40       -15.2221    0.4558   52.9143 H       1  ZINC000440379747    0.1000
     41 H41       -15.0340   -1.1378   52.1082 H       1  ZINC000440379747    0.0800
     42 H42       -15.2440   -0.5299   55.1112 H       1  ZINC000440379747    0.1000
     43 H43       -16.0928   -1.8000   54.1702 H       1  ZINC000440379747    0.1000
     44 H44       -12.6043   -2.5509   56.1486 H       1  ZINC000440379747    0.1500
     45 H45       -13.8400   -1.3130   56.4786 H       1  ZINC000440379747    0.1400
     46 H46       -13.6160   -5.2813   55.7730 H       1  ZINC000440379747    0.4100
     47 H47       -15.2625   -5.2943   55.4390 H       1  ZINC000440379747    0.4200
     48 H48        -7.8187   -1.9270   52.1579 H       1  ZINC000440379747    0.1400
     49 H49        -6.0387   -0.8611   50.8485 H       1  ZINC000440379747    0.1500
@<TRIPOS>BOND
     1     1     2    1
     2     1    29    1
     3     1    30    1
     4     1    31    1
     5     2     3    2
     6     2     4   am
     7     4    28    1
     8     4     5    1
     9     5     6    1
    10     5    32    1
    11     5    33    1
    12     6     7    1
    13     6    34    1
    14     6    35    1
    15     7    28   ar
    16     7     8   ar
    17     8     9   ar
    18     8    36    1
    19     9    10    1
    20     9    26   ar
    21    10    11   am
    22    10    37    1
    23    11    12    2
    24    11    13    1
    25    13    14    2
    26    13    15   am
    27    15    19    1
    28    15    16    1
    29    16    17    1
    30    16    38    1
    31    16    39    1
    32    17    18    1
    33    17    40    1
    34    17    41    1
    35    18    19    1
    36    18    42    1
    37    18    43    1
    38    19    20    1
    39    19    21    1
    40    21    22    1
    41    21    44    1
    42    21    45    1
    43    22    23   am
    44    22    24    2
    45    22    25    2
    46    23    46    1
    47    23    47    1
    48    26    27   ar
    49    26    48    1
    50    27    28   ar
    51    27    49    1
@<TRIPOS>SUBSTRUCTURE
     1 ZINC000440379747        1 TEMP              0 ****  ****    0 ROOT


##########                                Name:    ZINC000284209281
##########                DOCK_Rotatable_Bonds:                   8
##########                         Heavy_Atoms:                  26
##########                    Molecular_Weight:             353.424
##########                DOCK_Rotatable_Bonds:                   8
##########                       Formal_Charge:          0.00999954
##########                     HBond_Acceptors:                   7
##########                        HBond_Donors:                   1
##########                         Heavy_Atoms:                  26
##########                          Grid_Score:          -36.939297
##########                     Grid_vdw_energy:          -37.212090
##########                      Grid_es_energy:            0.272795
##########           Internal_energy_repulsive:            9.494257

@<TRIPOS>MOLECULE
ZINC000284209281
 49 51 1 0 0
SMALL
USER_CHARGES


@<TRIPOS>ATOM
      1 O1         -6.4509    2.1262   49.7648 O.2     1  <0>        -0.5100
      2 C2         -5.7294    1.9279   50.7202 C.2     1  <0>         0.5100
      3 N3         -5.8072    0.7628   51.3931 N.am    1  <0>        -0.7000
      4 C4         -6.7669   -0.2619   50.9749 C.3     1  <0>         0.1200
      5 C5         -7.2928   -1.0014   52.2069 C.3     1  <0>        -0.1000
      6 C6         -8.7608   -0.7084   52.3800 C.ar    1  <0>        -0.0400
      7 C7         -9.2009    0.5789   52.6476 C.ar    1  <0>        -0.1700
      8 C8        -10.5549    0.8097   52.8004 C.ar    1  <0>         0.1000
      9 N9        -11.4233   -0.1770   52.6947 N.ar    1  <0>        -0.4900
     10 C10       -11.0410   -1.4132   52.4410 C.ar    1  <0>         0.1000
     11 C11        -9.7040   -1.7186   52.2699 C.ar    1  <0>        -0.1700
     12 C12        -4.7503    2.9733   51.1468 C.2     1  <0>         0.5100
     13 O13        -5.0116    3.7052   52.0788 O.2     1  <0>        -0.5200
     14 N14        -3.5770    3.1032   50.4963 N.am    1  <0>        -0.5800
     15 C15        -2.5969    4.1214   50.9034 C.3     1  <0>         0.0800
     16 C16        -1.2356    3.4414   51.0852 C.3     1  <0>         0.0400
     17 N17        -0.8932    2.7036   49.8619 N.3     1  <0>        -0.5300
     18 C18         0.4777    2.1800   49.9293 C.3     1  <0>         0.1000
     19 C19         1.1500    2.3590   48.5925 C.ar    1  <0>         0.1300
     20 C20         1.3486    3.6321   48.0931 C.ar    1  <0>        -0.1500
     21 C21         1.9687    3.7859   46.8623 C.ar    1  <0>        -0.0700
     22 C22         2.3673    2.6484   46.1775 C.ar    1  <0>        -0.1700
     23 C23         2.1350    1.4074   46.7402 C.ar    1  <0>         0.1000
     24 N24         1.5470    1.2992   47.9154 N.ar    1  <0>        -0.4800
     25 C25        -1.8564    1.6252   49.6027 C.3     1  <0>         0.0400
     26 C26        -3.2405    2.2268   49.3642 C.3     1  <0>         0.1100
     27 H27        -5.2276    0.6027   52.1543 H       1  <0>         0.4100
     28 H28        -7.5986    0.2108   50.4524 H       1  <0>         0.0800
     29 H29        -6.2748   -0.9703   50.3085 H       1  <0>         0.0800
     30 H30        -7.1494   -2.0739   52.0755 H       1  <0>         0.0900
     31 H31        -6.7488   -0.6676   53.0906 H       1  <0>         0.0900
     32 H32        -8.4944    1.3911   52.7360 H       1  <0>         0.1400
     33 H33       -10.9058    1.8096   53.0089 H       1  <0>         0.1600
     34 H34       -11.7816   -2.1954   52.3619 H       1  <0>         0.1600
     35 H35        -9.3971   -2.7330   52.0619 H       1  <0>         0.1400
     36 H36        -2.5231    4.8879   50.1320 H       1  <0>         0.0800
     37 H37        -2.9086    4.5741   51.8448 H       1  <0>         0.1400
     38 H38        -0.4745    4.1971   51.2792 H       1  <0>         0.0900
     39 H39        -1.2841    2.7492   51.9259 H       1  <0>         0.0400
     40 H40         1.0364    2.7216   50.6925 H       1  <0>         0.0900
     41 H41         0.4498    1.1203   50.1830 H       1  <0>         0.0600
     42 H42         1.0247    4.4962   48.6540 H       1  <0>         0.1400
     43 H43         2.1368    4.7686   46.4469 H       1  <0>         0.1400
     44 H44         2.8527    2.7307   45.2163 H       1  <0>         0.1400
     45 H45         2.4421    0.5163   46.2130 H       1  <0>         0.1600
     46 H46        -1.5456    1.0638   48.7217 H       1  <0>         0.1000
     47 H47        -1.8964    0.9583   50.4641 H       1  <0>         0.0400
     48 H48        -3.9781    1.4281   49.2854 H       1  <0>         0.1000
     49 H49        -3.2315    2.8127   48.4452 H       1  <0>         0.0800
@<TRIPOS>BOND
     1     1     2    2
     2     2     3   am
     3     2    12    1
     4     3     4    1
     5     3    27    1
     6     4     5    1
     7     4    28    1
     8     4    29    1
     9     5     6    1
    10     5    30    1
    11     5    31    1
    12     6    11   ar
    13     6     7   ar
    14     7     8   ar
    15     7    32    1
    16     8     9   ar
    17     8    33    1
    18     9    10   ar
    19    10    11   ar
    20    10    34    1
    21    11    35    1
    22    12    13    2
    23    12    14   am
    24    14    26    1
    25    14    15    1
    26    15    16    1
    27    15    36    1
    28    15    37    1
    29    16    17    1
    30    16    38    1
    31    16    39    1
    32    17    18    1
    33    17    25    1
    34    18    19    1
    35    18    40    1
    36    18    41    1
    37    19    24   ar
    38    19    20   ar
    39    20    21   ar
    40    20    42    1
    41    21    22   ar
    42    21    43    1
    43    22    23   ar
    44    22    44    1
    45    23    24   ar
    46    23    45    1
    47    25    26    1
    48    25    46    1
    49    25    47    1
    50    26    48    1
    51    26    49    1
@<TRIPOS>SUBSTRUCTURE
     1 <0>         1 TEMP              0 ****  ****    0 ROOT


##########                                Name:    ZINC000787750060
##########                DOCK_Rotatable_Bonds:                   6
##########                         Heavy_Atoms:                  24
##########                    Molecular_Weight:             347.438
##########                DOCK_Rotatable_Bonds:                   6
##########                       Formal_Charge:           0.0200003
##########                     HBond_Acceptors:                   7
##########                        HBond_Donors:                   2
##########                         Heavy_Atoms:                  24
##########                          Grid_Score:          -36.928642
##########                     Grid_vdw_energy:          -34.218201
##########                      Grid_es_energy:           -2.710442
##########           Internal_energy_repulsive:            5.598566

@<TRIPOS>MOLECULE
ZINC000787750060
 45 47 1 0 0
SMALL
USER_CHARGES


@<TRIPOS>ATOM
      1 C1         -8.1376    1.7608   53.3832 C.3     1  ZINC000787750060   -0.1200
      2 C2         -7.0176    1.8026   52.3756 C.ar    1  ZINC000787750060   -0.0400
      3 C3         -6.3096    2.9772   52.1817 C.ar    1  ZINC000787750060   -0.1300
      4 C4         -5.2835    3.0269   51.2630 C.ar    1  ZINC000787750060   -0.0700
      5 C5         -4.9547    1.8884   50.5238 C.ar    1  ZINC000787750060   -0.1700
      6 C6         -3.8571    1.9344   49.5389 C.2     1  ZINC000787750060    0.5600
      7 O7         -4.0883    2.2384   48.3846 O.2     1  ZINC000787750060   -0.5200
      8 N8         -2.5981    1.6396   49.9190 N.am    1  ZINC000787750060   -0.7300
      9 C9         -1.5084    1.6836   48.9407 C.3     1  ZINC000787750060    0.2100
     10 C10        -0.1882    1.7668   49.6628 C.2     1  ZINC000787750060   -0.2800
     11 C11         0.9097    1.0696   49.3694 C.2     1  ZINC000787750060    0.0900
     12 N12         1.9449    1.3199   50.1513 N.2     1  ZINC000787750060   -0.5200
     13 C13         1.7711    2.1963   51.0912 C.2     1  ZINC000787750060    0.2300
     14 N14         2.7399    2.5857   52.0028 N.3     1  ZINC000787750060   -0.4500
     15 C15         3.8190    1.5905   52.0822 C.3     1  ZINC000787750060    0.0200
     16 C16         4.8936    2.0872   53.0529 C.3     1  ZINC000787750060    0.0600
     17 O17         4.2968    2.3415   54.3275 O.3     1  ZINC000787750060   -0.3800
     18 C18         3.2423    3.3066   54.2871 C.3     1  ZINC000787750060    0.0600
     19 C19         2.1509    2.8222   53.3288 C.3     1  ZINC000787750060    0.0300
     20 S20         0.1754    2.8078   51.0366 S.3     1  ZINC000787750060    0.1700
     21 C21        -5.6735    0.7015   50.7233 C.ar    1  ZINC000787750060    0.1700
     22 O22        -5.3633   -0.4107   50.0111 O.3     1  ZINC000787750060   -0.4700
     23 C23        -6.6996    0.6681   51.6552 C.ar    1  ZINC000787750060   -0.1200
     24 C24        -7.4761   -0.6047   51.8744 C.3     1  ZINC000787750060   -0.1200
     25 H25        -7.7400    1.4738   54.3567 H       1  ZINC000787750060    0.0800
     26 H26        -8.5987    2.7458   53.4551 H       1  ZINC000787750060    0.0700
     27 H27        -8.8841    1.0323   53.0666 H       1  ZINC000787750060    0.0800
     28 H28        -6.5630    3.8581   52.7528 H       1  ZINC000787750060    0.1300
     29 H29        -4.7345    3.9451   51.1146 H       1  ZINC000787750060    0.1300
     30 H30        -2.4134    1.3982   50.8401 H       1  ZINC000787750060    0.4000
     31 H31        -1.5321    0.7813   48.3296 H       1  ZINC000787750060    0.0900
     32 H32        -1.6288    2.5583   48.3018 H       1  ZINC000787750060    0.0800
     33 H33         0.9497    0.3578   48.5581 H       1  ZINC000787750060    0.1800
     34 H34         3.4150    0.6434   52.4399 H       1  ZINC000787750060    0.0600
     35 H35         4.2577    1.4498   51.0944 H       1  ZINC000787750060    0.1000
     36 H36         5.6679    1.3272   53.1586 H       1  ZINC000787750060    0.1100
     37 H37         5.3352    3.0063   52.6678 H       1  ZINC000787750060    0.0700
     38 H38         2.8221    3.4286   55.2855 H       1  ZINC000787750060    0.1100
     39 H39         3.6357    4.2613   53.9379 H       1  ZINC000787750060    0.0600
     40 H40         1.3720    3.5808   53.2511 H       1  ZINC000787750060    0.1000
     41 H41         1.7202    1.8949   53.7066 H       1  ZINC000787750060    0.0700
     42 H42        -5.7909   -1.2161   50.3334 H       1  ZINC000787750060    0.4000
     43 H43        -6.9940   -1.1946   52.6540 H       1  ZINC000787750060    0.0700
     44 H44        -8.4938   -0.3615   52.1797 H       1  ZINC000787750060    0.0700
     45 H45        -7.5019   -1.1786   50.9481 H       1  ZINC000787750060    0.0800
@<TRIPOS>BOND
     1     1     2    1
     2     1    25    1
     3     1    26    1
     4     1    27    1
     5     2    23   ar
     6     2     3   ar
     7     3     4   ar
     8     3    28    1
     9     4     5   ar
    10     4    29    1
    11     5     6    1
    12     5    21   ar
    13     6     7    2
    14     6     8   am
    15     8     9    1
    16     8    30    1
    17     9    10    1
    18     9    31    1
    19     9    32    1
    20    10    20    1
    21    10    11    2
    22    11    12    1
    23    11    33    1
    24    12    13    2
    25    13    14    1
    26    13    20    1
    27    14    19    1
    28    14    15    1
    29    15    16    1
    30    15    34    1
    31    15    35    1
    32    16    17    1
    33    16    36    1
    34    16    37    1
    35    17    18    1
    36    18    19    1
    37    18    38    1
    38    18    39    1
    39    19    40    1
    40    19    41    1
    41    21    22    1
    42    21    23   ar
    43    22    42    1
    44    23    24    1
    45    24    43    1
    46    24    44    1
    47    24    45    1
@<TRIPOS>SUBSTRUCTURE
     1 ZINC000787750060        1 TEMP              0 ****  ****    0 ROOT


##########                                Name:    ZINC000572257265
##########                DOCK_Rotatable_Bonds:                  11
##########                         Heavy_Atoms:                  24
##########                    Molecular_Weight:             393.509
##########                DOCK_Rotatable_Bonds:                  11
##########                       Formal_Charge:          -0.0100002
##########                     HBond_Acceptors:                  11
##########                        HBond_Donors:                   3
##########                         Heavy_Atoms:                  24
##########                          Grid_Score:          -36.903740
##########                     Grid_vdw_energy:          -38.206615
##########                      Grid_es_energy:            1.302877
##########           Internal_energy_repulsive:           11.327824

@<TRIPOS>MOLECULE
ZINC000572257265
 43 43 1 0 0
SMALL
USER_CHARGES


@<TRIPOS>ATOM
      1 C1         -9.0522    0.4551   53.1231 C.3     1  ZINC000572257265   -0.1300
      2 S2        -10.8432    0.5483   52.8504 S.3     1  ZINC000572257265   -0.2200
      3 C3        -11.4617   -0.9347   53.6923 C.3     1  ZINC000572257265   -0.1300
      4 C4        -11.7713   -2.0173   52.6565 C.3     1  ZINC000572257265    0.1500
      5 C5        -12.9253   -1.5549   51.7646 C.3     1  ZINC000572257265   -0.1500
      6 O6        -10.6133   -2.2528   51.8531 O.3     1  ZINC000572257265   -0.5400
      7 C7        -12.1667   -3.3102   53.3727 C.3     1  ZINC000572257265    0.0900
      8 N8        -13.4170   -3.0993   54.1065 N.am    1  ZINC000572257265   -1.1100
      9 S9        -13.7471   -4.0003   55.4562 S.o2    1  ZINC000572257265    2.6900
     10 O10       -14.9370   -3.4624   56.0166 O.2     1  ZINC000572257265   -0.9400
     11 O11       -13.6154   -5.3619   55.0717 O.2     1  ZINC000572257265   -0.9500
     12 C12       -12.4623   -3.6855   56.6202 C.ar    1  ZINC000572257265   -0.6300
     13 C13       -12.1107   -2.3842   56.9266 C.ar    1  ZINC000572257265   -0.0400
     14 C14       -11.1027   -2.1372   57.8398 C.ar    1  ZINC000572257265   -0.0400
     15 C15       -10.4466   -3.1917   58.4469 C.ar    1  ZINC000572257265   -0.6300
     16 S16        -9.1614   -2.8769   59.6104 S.o2    1  ZINC000572257265    2.7000
     17 O17        -8.4386   -4.0926   59.7485 O.2     1  ZINC000572257265   -0.9400
     18 O18        -8.5557   -1.6529   59.2180 O.2     1  ZINC000572257265   -0.9400
     19 N19        -9.8834   -2.5935   61.0736 N.am    1  ZINC000572257265   -1.1200
     20 C20       -10.8245   -1.4807   61.2227 C.3     1  ZINC000572257265    0.2200
     21 C21       -12.1954   -1.9625   60.9874 C.1     1  ZINC000572257265    0.1900
     22 N22       -13.2533   -2.3344   60.8057 N.1     1  ZINC000572257265   -0.3900
     23 C23       -10.7990   -4.4930   58.1415 C.ar    1  ZINC000572257265   -0.0400
     24 C24       -11.8097   -4.7399   57.2312 C.ar    1  ZINC000572257265   -0.0400
     25 H25        -8.6657   -0.4661   52.6870 H       1  ZINC000572257265    0.0800
     26 H26        -8.5680    1.3109   52.6525 H       1  ZINC000572257265    0.1000
     27 H27        -8.8465    0.4646   54.1935 H       1  ZINC000572257265    0.0800
     28 H28       -10.7050   -1.3011   54.3858 H       1  ZINC000572257265    0.0900
     29 H29       -12.3698   -0.6880   54.2424 H       1  ZINC000572257265    0.0900
     30 H30       -12.6436   -0.6338   51.2544 H       1  ZINC000572257265    0.0800
     31 H31       -13.1459   -2.3262   51.0267 H       1  ZINC000572257265    0.0700
     32 H32       -13.8087   -1.3752   52.3775 H       1  ZINC000572257265    0.0800
     33 H33       -10.1115   -3.0394   52.1072 H       1  ZINC000572257265    0.3800
     34 H34       -12.3056   -4.1042   52.6389 H       1  ZINC000572257265    0.0900
     35 H35       -11.3793   -3.5943   54.0707 H       1  ZINC000572257265    0.0800
     36 H36       -14.0516   -2.4319   53.8018 H       1  ZINC000572257265    0.4300
     37 H37       -12.6234   -1.5604   56.4523 H       1  ZINC000572257265    0.1500
     38 H38       -10.8276   -1.1206   58.0786 H       1  ZINC000572257265    0.1500
     39 H39        -9.6832   -3.1644   61.8318 H       1  ZINC000572257265    0.4300
     40 H40       -10.7502   -1.0748   62.2316 H       1  ZINC000572257265    0.1100
     41 H41       -10.5838   -0.7019   60.4991 H       1  ZINC000572257265    0.1300
     42 H42       -10.2867   -5.3168   58.6162 H       1  ZINC000572257265    0.1600
     43 H43       -12.0851   -5.7566   56.9926 H       1  ZINC000572257265    0.1500
@<TRIPOS>BOND
     1     1     2    1
     2     1    25    1
     3     1    26    1
     4     1    27    1
     5     2     3    1
     6     3     4    1
     7     3    28    1
     8     3    29    1
     9     4     5    1
    10     4     6    1
    11     4     7    1
    12     5    30    1
    13     5    31    1
    14     5    32    1
    15     6    33    1
    16     7     8    1
    17     7    34    1
    18     7    35    1
    19     8     9   am
    20     8    36    1
    21     9    10    2
    22     9    11    2
    23     9    12    1
    24    12    24   ar
    25    12    13   ar
    26    13    14   ar
    27    13    37    1
    28    14    15   ar
    29    14    38    1
    30    15    16    1
    31    15    23   ar
    32    16    17    2
    33    16    18    2
    34    16    19   am
    35    19    20    1
    36    19    39    1
    37    20    21    1
    38    20    40    1
    39    20    41    1
    40    21    22    3
    41    23    24   ar
    42    23    42    1
    43    24    43    1
@<TRIPOS>SUBSTRUCTURE
     1 ZINC000572257265        1 TEMP              0 ****  ****    0 ROOT


##########                                Name:    ZINC000541252362
##########                DOCK_Rotatable_Bonds:                   5
##########                         Heavy_Atoms:                  27
##########                    Molecular_Weight:             401.254
##########                DOCK_Rotatable_Bonds:                   5
##########                       Formal_Charge:          -0.0199999
##########                     HBond_Acceptors:                   9
##########                        HBond_Donors:                   1
##########                         Heavy_Atoms:                  27
##########                          Grid_Score:          -36.859955
##########                     Grid_vdw_energy:          -35.591393
##########                      Grid_es_energy:           -1.268562
##########           Internal_energy_repulsive:            4.598912

@<TRIPOS>MOLECULE
ZINC000541252362
 41 44 1 0 0
SMALL
USER_CHARGES


@<TRIPOS>ATOM
      1 C1        -14.6611   -3.4326   55.7760 C.3     1  ZINC000541252362    0.1000
      2 N2        -13.5894   -2.8250   54.9831 N.pl3   1  ZINC000541252362   -0.3800
      3 C3        -13.3484   -3.0183   53.6738 C.2     1  ZINC000541252362    0.2600
      4 N4        -12.3088   -2.3014   53.3379 N.2     1  ZINC000541252362   -0.5300
      5 C5        -11.8543   -1.6333   54.4065 C.2     1  ZINC000541252362    0.2700
      6 C6        -10.6888   -0.7147   54.4210 C.ar    1  ZINC000541252362    0.0000
      7 C7        -10.3154   -0.0785   55.6032 C.ar    1  ZINC000541252362   -0.1000
      8 C8         -9.2305    0.7757   55.6153 C.ar    1  ZINC000541252362   -0.1000
      9 C9         -8.5121    1.0030   54.4570 C.ar    1  ZINC000541252362   -0.1300
     10 C10        -8.8774    0.3728   53.2736 C.ar    1  ZINC000541252362    0.1400
     11 N11        -8.1475    0.6055   52.1024 N.am    1  ZINC000541252362   -0.6800
     12 C12        -7.2532   -0.3069   51.6732 C.2     1  ZINC000541252362    0.5100
     13 O13        -7.0808   -1.3296   52.3021 O.2     1  ZINC000541252362   -0.4900
     14 C14        -6.4673   -0.0563   50.4121 C.3     1  ZINC000541252362   -0.0600
     15 C15        -5.2528    0.7758   50.7339 C.2     1  ZINC000541252362    0.0700
     16 C16        -5.1653    1.6939   51.7215 C.2     1  ZINC000541252362   -0.0700
     17 N17        -3.9029    2.2192   51.6743 N.pl3   1  ZINC000541252362   -0.3500
     18 C18        -3.2696    3.1702   52.4227 C.2     1  ZINC000541252362    0.0700
     19 C19        -1.9901    3.5126   52.1599 C.2     1  ZINC000541252362   -0.0500
     20 Cl20       -1.2043    4.7240   53.1235 Cl      1  ZINC000541252362   -0.0200
     21 C21        -1.2917    2.8921   51.1099 C.2     1  ZINC000541252362   -0.0900
     22 C22        -1.9112    1.9426   50.3569 C.2     1  ZINC000541252362    0.0200
     23 Cl23       -1.0644    1.1648   49.0562 Cl      1  ZINC000541252362   -0.0100
     24 C24        -3.2480    1.5967   50.6441 C.2     1  ZINC000541252362    0.2200
     25 N25        -4.0820    0.7248   50.0946 N.2     1  ZINC000541252362   -0.4300
     26 C26        -9.9620   -0.4907   53.2546 C.ar    1  ZINC000541252362   -0.0800
     27 N27       -12.6156   -1.9218   55.4391 N.2     1  ZINC000541252362   -0.3100
     28 H28       -15.5459   -2.7971   55.7383 H       1  ZINC000541252362    0.0800
     29 H29       -14.9017   -4.4148   55.3693 H       1  ZINC000541252362    0.0900
     30 H30       -14.3330   -3.5378   56.8101 H       1  ZINC000541252362    0.0900
     31 H31       -13.9167   -3.6567   53.0135 H       1  ZINC000541252362    0.2200
     32 H32       -10.8750   -0.2532   56.5103 H       1  ZINC000541252362    0.1300
     33 H33        -8.9427    1.2678   56.5326 H       1  ZINC000541252362    0.1300
     34 H34        -7.6648    1.6725   54.4714 H       1  ZINC000541252362    0.1300
     35 H35        -8.2853    1.4234   51.5996 H       1  ZINC000541252362    0.4100
     36 H36        -6.1524   -1.0086   49.9850 H       1  ZINC000541252362    0.1200
     37 H37        -7.0920    0.4750   49.6940 H       1  ZINC000541252362    0.1200
     38 H38        -5.9460    1.9632   52.4175 H       1  ZINC000541252362    0.1900
     39 H39        -3.7973    3.6531   53.2319 H       1  ZINC000541252362    0.1800
     40 H40        -0.2685    3.1677   50.9013 H       1  ZINC000541252362    0.1600
     41 H41       -10.2474   -0.9818   52.3361 H       1  ZINC000541252362    0.1500
@<TRIPOS>BOND
     1     1     2    1
     2     1    28    1
     3     1    29    1
     4     1    30    1
     5     2    27    1
     6     2     3    1
     7     3     4    2
     8     3    31    1
     9     4     5    1
    10     5     6    1
    11     5    27    2
    12     6    26   ar
    13     6     7   ar
    14     7     8   ar
    15     7    32    1
    16     8     9   ar
    17     8    33    1
    18     9    10   ar
    19     9    34    1
    20    10    11    1
    21    10    26   ar
    22    11    12   am
    23    11    35    1
    24    12    13    2
    25    12    14    1
    26    14    15    1
    27    14    36    1
    28    14    37    1
    29    15    25    1
    30    15    16    2
    31    16    17    1
    32    16    38    1
    33    17    24    1
    34    17    18    1
    35    18    19    2
    36    18    39    1
    37    19    20    1
    38    19    21    1
    39    21    22    2
    40    21    40    1
    41    22    23    1
    42    22    24    1
    43    24    25    2
    44    26    41    1
@<TRIPOS>SUBSTRUCTURE
     1 ZINC000541252362        1 TEMP              0 ****  ****    0 ROOT


##########                                Name:    ZINC001757264545
##########                DOCK_Rotatable_Bonds:                  11
##########                         Heavy_Atoms:                  25
##########                    Molecular_Weight:             344.497
##########                DOCK_Rotatable_Bonds:                  11
##########                       Formal_Charge:          0.00999946
##########                     HBond_Acceptors:                   4
##########                        HBond_Donors:                   2
##########                         Heavy_Atoms:                  25
##########                          Grid_Score:          -36.855076
##########                     Grid_vdw_energy:          -35.697987
##########                      Grid_es_energy:           -1.157091
##########           Internal_energy_repulsive:           12.970335

@<TRIPOS>MOLECULE
ZINC001757264545
 57 57 1 0 0
SMALL
USER_CHARGES


@<TRIPOS>ATOM
      1 C1         -1.4463    1.0433   49.0606 C.1     1  ZINC001757264545   -0.2100
      2 C2         -2.0127    1.9667   49.5132 C.1     1  ZINC001757264545   -0.1900
      3 C3         -2.7228    3.1244   50.0808 C.3     1  ZINC001757264545   -0.0100
      4 C4         -4.0488    2.6617   50.6880 C.3     1  ZINC001757264545   -0.1200
      5 C5         -4.9454    2.0967   49.5845 C.3     1  ZINC001757264545   -0.1200
      6 C6         -6.2879    1.6742   50.1845 C.3     1  ZINC001757264545   -0.1000
      7 C7         -6.1689    0.2597   50.7554 C.3     1  ZINC001757264545   -0.1400
      8 C8         -7.2333    0.0489   51.8013 C.2     1  ZINC001757264545    0.5100
      9 O9         -7.7253   -1.0492   51.9530 O.2     1  ZINC001757264545   -0.5400
     10 N10        -7.6385    1.0807   52.5679 N.am    1  ZINC001757264545   -0.7300
     11 C11        -8.6719    0.8753   53.5858 C.3     1  ZINC001757264545    0.1400
     12 H12        -8.4825   -0.0601   54.1124 H       1  ZINC001757264545    0.1000
     13 C13       -10.0448    0.8130   52.9134 C.3     1  ZINC001757264545   -0.1300
     14 C14       -11.1241    0.5985   53.9764 C.3     1  ZINC001757264545   -0.1200
     15 C15       -11.0964    1.7593   54.9728 C.3     1  ZINC001757264545   -0.1200
     16 C16        -9.7235    1.8216   55.6452 C.3     1  ZINC001757264545   -0.1300
     17 C17        -8.6443    2.0362   54.5821 C.3     1  ZINC001757264545    0.1400
     18 H18        -8.8338    2.9714   54.0555 H       1  ZINC001757264545    0.1000
     19 N19        -7.3298    2.0958   55.2260 N.am    1  ZINC001757264545   -0.7200
     20 C20        -6.5330    3.1658   55.0335 C.2     1  ZINC001757264545    0.6400
     21 O21        -6.9061    4.0823   54.3266 O.2     1  ZINC001757264545   -0.5200
     22 C22        -5.2473    3.2233   55.6615 C.1     1  ZINC001757264545   -0.2300
     23 C23        -4.1933    3.2705   56.1763 C.1     1  ZINC001757264545   -0.0500
     24 C24        -2.8716    3.3296   56.8218 C.3     1  ZINC001757264545    0.0300
     25 C25        -2.9016    4.3610   57.9515 C.3     1  ZINC001757264545   -0.1400
     26 C26        -2.5223    1.9550   57.3952 C.3     1  ZINC001757264545   -0.1400
     27 C27        -1.8176    3.7346   55.7894 C.3     1  ZINC001757264545   -0.1400
     28 H28        -0.9398    0.2174   48.6558 H       1  ZINC001757264545    0.2200
     29 H29        -2.9182    3.8524   49.2936 H       1  ZINC001757264545    0.0900
     30 H30        -2.1087    3.5830   50.8557 H       1  ZINC001757264545    0.0900
     31 H31        -4.5460    3.5077   51.1625 H       1  ZINC001757264545    0.0700
     32 H32        -3.8575    1.8886   51.4321 H       1  ZINC001757264545    0.0700
     33 H33        -4.4619    1.2315   49.1308 H       1  ZINC001757264545    0.0700
     34 H34        -5.1112    2.8602   48.8245 H       1  ZINC001757264545    0.0700
     35 H35        -7.0536    1.6897   49.4088 H       1  ZINC001757264545    0.0700
     36 H36        -6.5636    2.3654   50.9809 H       1  ZINC001757264545    0.0700
     37 H37        -5.1852    0.1318   51.2073 H       1  ZINC001757264545    0.0900
     38 H38        -6.2979   -0.4676   49.9539 H       1  ZINC001757264545    0.0900
     39 H39        -7.2459    1.9592   52.4458 H       1  ZINC001757264545    0.4000
     40 H40       -10.2343    1.7483   52.3868 H       1  ZINC001757264545    0.0700
     41 H41       -10.0645   -0.0140   52.2036 H       1  ZINC001757264545    0.0800
     42 H42       -12.1022    0.5541   53.4974 H       1  ZINC001757264545    0.0700
     43 H43       -10.9347   -0.3369   54.5030 H       1  ZINC001757264545    0.0700
     44 H44       -11.8654    1.6065   55.7300 H       1  ZINC001757264545    0.0700
     45 H45       -11.2859    2.6946   54.4462 H       1  ZINC001757264545    0.0700
     46 H46        -9.5341    0.8863   56.1718 H       1  ZINC001757264545    0.0700
     47 H47        -9.7039    2.6486   56.3550 H       1  ZINC001757264545    0.0800
     48 H48        -7.0326    1.3653   55.7907 H       1  ZINC001757264545    0.4000
     49 H49        -3.6525    4.0725   58.6870 H       1  ZINC001757264545    0.0600
     50 H50        -1.9229    4.4048   58.4295 H       1  ZINC001757264545    0.0700
     51 H51        -3.1506    5.3403   57.5429 H       1  ZINC001757264545    0.0600
     52 H52        -2.5009    1.2202   56.5904 H       1  ZINC001757264545    0.0600
     53 H53        -1.5436    1.9987   57.8732 H       1  ZINC001757264545    0.0700
     54 H54        -3.2732    1.6665   58.1308 H       1  ZINC001757264545    0.0600
     55 H55        -2.0666    4.7139   55.3808 H       1  ZINC001757264545    0.0600
     56 H56        -0.8389    3.7783   56.2673 H       1  ZINC001757264545    0.0700
     57 H57        -1.7963    2.9998   54.9845 H       1  ZINC001757264545    0.0600
@<TRIPOS>BOND
     1     1     2    3
     2     1    28    1
     3     2     3    1
     4     3     4    1
     5     3    29    1
     6     3    30    1
     7     4     5    1
     8     4    31    1
     9     4    32    1
    10     5     6    1
    11     5    33    1
    12     5    34    1
    13     6     7    1
    14     6    35    1
    15     6    36    1
    16     7     8    1
    17     7    37    1
    18     7    38    1
    19     8     9    2
    20     8    10   am
    21    10    11    1
    22    10    39    1
    23    11    12    1
    24    11    17    1
    25    11    13    1
    26    13    14    1
    27    13    40    1
    28    13    41    1
    29    14    15    1
    30    14    42    1
    31    14    43    1
    32    15    16    1
    33    15    44    1
    34    15    45    1
    35    16    17    1
    36    16    46    1
    37    16    47    1
    38    17    18    1
    39    17    19    1
    40    19    20   am
    41    19    48    1
    42    20    21    2
    43    20    22    1
    44    22    23    3
    45    23    24    1
    46    24    25    1
    47    24    26    1
    48    24    27    1
    49    25    49    1
    50    25    50    1
    51    25    51    1
    52    26    52    1
    53    26    53    1
    54    26    54    1
    55    27    55    1
    56    27    56    1
    57    27    57    1
@<TRIPOS>SUBSTRUCTURE
     1 ZINC001757264545        1 TEMP              0 ****  ****    0 ROOT


##########                                Name:    ZINC000409064708
##########                DOCK_Rotatable_Bonds:                   8
##########                         Heavy_Atoms:                  29
##########                    Molecular_Weight:             415.442
##########                DOCK_Rotatable_Bonds:                   8
##########                       Formal_Charge:                0.03
##########                     HBond_Acceptors:                   8
##########                        HBond_Donors:                   0
##########                         Heavy_Atoms:                  29
##########                          Grid_Score:          -36.808578
##########                     Grid_vdw_energy:          -35.717922
##########                      Grid_es_energy:           -1.090654
##########           Internal_energy_repulsive:           19.347702

@<TRIPOS>MOLECULE
ZINC000409064708
 47 49 1 0 0
SMALL
USER_CHARGES


@<TRIPOS>ATOM
      1 C1        -14.0904   -1.1913   51.0302 C.3     1  ZINC000409064708    0.0400
      2 O2        -12.6955   -0.7905   50.9853 O.3     1  ZINC000409064708   -0.3500
      3 C3        -11.8594   -1.3967   51.8426 C.2     1  ZINC000409064708    0.4600
      4 O4        -11.6063   -2.5709   51.7116 O.2     1  ZINC000409064708   -0.4900
      5 C5        -11.2362   -0.6127   52.9688 C.3     1  ZINC000409064708    0.1400
      6 H6        -11.8356    0.2756   53.1683 H       1  ZINC000409064708    0.1500
      7 C7        -11.1798   -1.4829   54.2258 C.3     1  ZINC000409064708   -0.1600
      8 N8         -9.8788   -0.2111   52.5914 N.am    1  ZINC000409064708   -0.5600
      9 C9         -8.9747   -1.1345   52.2449 C.2     1  ZINC000409064708    0.5400
     10 O10        -9.1482   -2.3376   52.2008 O.2     1  ZINC000409064708   -0.4200
     11 S11        -7.4761   -0.2694   51.8615 S.3     1  ZINC000409064708   -0.0100
     12 C12        -8.1518    1.3379   52.1936 C.2     1  ZINC000409064708   -0.2400
     13 C13        -7.5297    2.5404   52.1011 C.2     1  ZINC000409064708    0.0900
     14 C14        -6.1241    2.6095   51.6817 C.ar    1  ZINC000409064708   -0.1400
     15 C15        -5.1145    2.7916   52.6349 C.ar    1  ZINC000409064708    0.0000
     16 C16        -3.7983    2.8557   52.2362 C.ar    1  ZINC000409064708   -0.1600
     17 C17        -3.4709    2.7405   50.8900 C.ar    1  ZINC000409064708    0.1600
     18 O18        -2.1714    2.8044   50.5023 O.3     1  ZINC000409064708   -0.3000
     19 C19        -1.7524    1.8928   49.4847 C.3     1  ZINC000409064708    0.1000
     20 C20        -0.2480    1.8942   49.3973 C.ar    1  ZINC000409064708   -0.0700
     21 C21         0.4966    1.1468   50.2903 C.ar    1  ZINC000409064708   -0.1000
     22 C22         1.8770    1.1472   50.2115 C.ar    1  ZINC000409064708   -0.0900
     23 C23         2.5138    1.8948   49.2393 C.ar    1  ZINC000409064708   -0.1400
     24 C24         1.7688    2.6435   48.3437 C.ar    1  ZINC000409064708    0.1000
     25 F25         2.3903    3.3749   47.3929 F       1  ZINC000409064708   -0.1400
     26 C26         0.3866    2.6383   48.4205 C.ar    1  ZINC000409064708   -0.1300
     27 C27        -4.4690    2.5598   49.9395 C.ar    1  ZINC000409064708   -0.2200
     28 C28        -5.7879    2.4879   50.3278 C.ar    1  ZINC000409064708   -0.0400
     29 C29        -9.5397    1.0672   52.5856 C.2     1  ZINC000409064708    0.5600
     30 O30       -10.3182    1.9521   52.8894 O.2     1  ZINC000409064708   -0.4600
     31 H31       -14.1695   -2.2566   50.8127 H       1  ZINC000409064708    0.0700
     32 H32       -14.4939   -0.9924   52.0230 H       1  ZINC000409064708    0.0700
     33 H33       -14.6549   -0.6263   50.2886 H       1  ZINC000409064708    0.1100
     34 H34       -12.1897   -1.7817   54.5066 H       1  ZINC000409064708    0.1000
     35 H35       -10.5803   -2.3712   54.0263 H       1  ZINC000409064708    0.0800
     36 H36       -10.7290   -0.9159   55.0403 H       1  ZINC000409064708    0.0800
     37 H37        -8.0682    3.4467   52.3361 H       1  ZINC000409064708    0.1600
     38 H38        -5.3679    2.8819   53.6809 H       1  ZINC000409064708    0.1300
     39 H39        -3.0189    2.9959   52.9704 H       1  ZINC000409064708    0.1400
     40 H40        -2.1013    0.8896   49.7296 H       1  ZINC000409064708    0.0800
     41 H41        -2.1722    2.1998   48.5267 H       1  ZINC000409064708    0.0800
     42 H42        -0.0002    0.5625   51.0507 H       1  ZINC000409064708    0.1300
     43 H43         2.4578    0.5632   50.9100 H       1  ZINC000409064708    0.1400
     44 H44         3.5921    1.8955   49.1783 H       1  ZINC000409064708    0.1400
     45 H45        -0.1955    3.2215   47.7223 H       1  ZINC000409064708    0.1400
     46 H46        -4.2091    2.4712   48.8951 H       1  ZINC000409064708    0.1300
     47 H47        -6.5626    2.3474   49.5885 H       1  ZINC000409064708    0.1300
@<TRIPOS>BOND
     1     1     2    1
     2     1    31    1
     3     1    32    1
     4     1    33    1
     5     2     3    1
     6     3     4    2
     7     3     5    1
     8     5     6    1
     9     5     7    1
    10     5     8    1
    11     7    34    1
    12     7    35    1
    13     7    36    1
    14     8    29   am
    15     8     9   am
    16     9    10    2
    17     9    11    1
    18    11    12    1
    19    12    13    2
    20    12    29    1
    21    13    14    1
    22    13    37    1
    23    14    28   ar
    24    14    15   ar
    25    15    16   ar
    26    15    38    1
    27    16    17   ar
    28    16    39    1
    29    17    18    1
    30    17    27   ar
    31    18    19    1
    32    19    20    1
    33    19    40    1
    34    19    41    1
    35    20    26   ar
    36    20    21   ar
    37    21    22   ar
    38    21    42    1
    39    22    23   ar
    40    22    43    1
    41    23    24   ar
    42    23    44    1
    43    24    25    1
    44    24    26   ar
    45    26    45    1
    46    27    28   ar
    47    27    46    1
    48    28    47    1
    49    29    30    2
@<TRIPOS>SUBSTRUCTURE
     1 ZINC000409064708        1 TEMP              0 ****  ****    0 ROOT


##########                                Name:    ZINC001328997126
##########                DOCK_Rotatable_Bonds:                   7
##########                         Heavy_Atoms:                  26
##########                    Molecular_Weight:             388.488
##########                DOCK_Rotatable_Bonds:                   7
##########                       Formal_Charge:           0.0299993
##########                     HBond_Acceptors:                  10
##########                        HBond_Donors:                   1
##########                         Heavy_Atoms:                  26
##########                          Grid_Score:          -36.746735
##########                     Grid_vdw_energy:          -34.210930
##########                      Grid_es_energy:           -2.535805
##########           Internal_energy_repulsive:            8.160742

@<TRIPOS>MOLECULE
ZINC001328997126
 54 56 1 0 0
SMALL
USER_CHARGES


@<TRIPOS>ATOM
      1 C1        -13.8908   -0.1461   51.6578 C.3     1  ZINC001328997126   -0.1700
      2 C2        -13.1674   -1.4603   51.3568 C.3     1  ZINC001328997126    0.1400
      3 N3        -12.3522   -1.8446   52.5118 N.am    1  ZINC001328997126   -0.6300
      4 C4        -12.4767   -3.1010   53.2666 C.3     1  ZINC001328997126    0.0700
      5 C5        -11.3933   -2.9834   54.3560 C.3     1  ZINC001328997126    0.0700
      6 H6        -10.6583   -3.7816   54.2517 H       1  ZINC001328997126    0.1200
      7 C7        -12.0266   -3.0179   55.7483 C.3     1  ZINC001328997126    0.0500
      8 N8        -11.0054   -2.7107   56.7585 N.3     1  ZINC001328997126   -0.5300
      9 C9        -10.9210   -3.7791   57.7640 C.3     1  ZINC001328997126    0.0500
     10 C10        -9.7947   -3.4602   58.7501 C.3     1  ZINC001328997126    0.0600
     11 N11       -10.0572   -2.1617   59.3862 N.3     1  ZINC001328997126   -0.5200
     12 C12        -9.0359   -1.8544   60.3965 C.3     1  ZINC001328997126    0.0400
     13 C13        -9.6849   -1.1818   61.5785 C.2     1  ZINC001328997126    0.5200
     14 O14       -10.8923   -1.1906   61.6937 O.2     1  ZINC001328997126   -0.5100
     15 N15        -8.9238   -0.5705   62.5077 N.am    1  ZINC001328997126   -0.7300
     16 C16        -9.5549    0.0849   63.6559 C.3     1  ZINC001328997126    0.1600
     17 H17       -10.5296   -0.3651   63.8446 H       1  ZINC001328997126    0.1100
     18 C18        -8.6618   -0.0755   64.8986 C.3     1  ZINC001328997126   -0.1400
     19 C19        -9.2098    0.9041   65.9682 C.3     1  ZINC001328997126   -0.5800
     20 S20        -9.5566    2.4128   64.9869 S.o2    1  ZINC001328997126    2.4000
     21 O21       -10.8124    2.9506   65.3780 O.2     1  ZINC001328997126   -0.9300
     22 O22        -8.4034    3.2431   64.9763 O.2     1  ZINC001328997126   -0.9300
     23 C23        -9.7263    1.5891   63.3645 C.3     1  ZINC001328997126   -0.6100
     24 C24       -10.1416   -1.0933   58.3808 C.3     1  ZINC001328997126    0.0500
     25 C25       -11.2678   -1.4122   57.3947 C.3     1  ZINC001328997126    0.0600
     26 O26       -10.7785   -1.6868   54.1035 O.3     1  ZINC001328997126   -0.3100
     27 C27       -11.3678   -1.1114   53.0495 C.2     1  ZINC001328997126    0.6400
     28 O28       -11.0455   -0.0201   52.6235 O.2     1  ZINC001328997126   -0.5200
     29 H29       -14.5331   -0.2761   52.5287 H       1  ZINC001328997126    0.0600
     30 H30       -13.1572    0.6342   51.8605 H       1  ZINC001328997126    0.0600
     31 H31       -14.4973    0.1399   50.7984 H       1  ZINC001328997126    0.0700
     32 H32       -13.9010   -2.2406   51.1540 H       1  ZINC001328997126    0.0900
     33 H33       -12.5251   -1.3303   50.4858 H       1  ZINC001328997126    0.0900
     34 H34       -13.4659   -3.1804   53.7174 H       1  ZINC001328997126    0.0900
     35 H35       -12.2793   -3.9567   52.6210 H       1  ZINC001328997126    0.0900
     36 H36       -12.8255   -2.2784   55.8025 H       1  ZINC001328997126    0.0900
     37 H37       -12.4367   -4.0102   55.9364 H       1  ZINC001328997126    0.0600
     38 H38       -11.8666   -3.8478   58.3018 H       1  ZINC001328997126    0.0500
     39 H39       -10.7137   -4.7282   57.2697 H       1  ZINC001328997126    0.0900
     40 H40        -9.7492   -4.2367   59.5136 H       1  ZINC001328997126    0.0800
     41 H41        -8.8452   -3.4183   58.2164 H       1  ZINC001328997126    0.0500
     42 H42        -8.5571   -2.7781   60.7217 H       1  ZINC001328997126    0.1100
     43 H43        -8.2874   -1.1893   59.9657 H       1  ZINC001328997126    0.0700
     44 H44        -7.9582   -0.5644   62.4161 H       1  ZINC001328997126    0.4100
     45 H45        -8.7161   -1.0997   65.2676 H       1  ZINC001328997126    0.1100
     46 H46        -7.6308    0.1790   64.6526 H       1  ZINC001328997126    0.0900
     47 H47       -10.1242    0.5154   66.4164 H       1  ZINC001328997126    0.1400
     48 H48        -8.4578    1.1035   66.7317 H       1  ZINC001328997126    0.1400
     49 H49        -8.9501    1.9346   62.6815 H       1  ZINC001328997126    0.1400
     50 H50       -10.7137    1.7802   62.9444 H       1  ZINC001328997126    0.1500
     51 H51       -10.3490   -0.1443   58.8751 H       1  ZINC001328997126    0.1000
     52 H52        -9.1960   -1.0246   57.8430 H       1  ZINC001328997126    0.0400
     53 H53       -11.3133   -0.6357   56.6311 H       1  ZINC001328997126    0.0800
     54 H54       -12.2174   -1.4541   57.9284 H       1  ZINC001328997126    0.0500
@<TRIPOS>BOND
     1     1     2    1
     2     1    29    1
     3     1    30    1
     4     1    31    1
     5     2     3    1
     6     2    32    1
     7     2    33    1
     8     3    27   am
     9     3     4    1
    10     4     5    1
    11     4    34    1
    12     4    35    1
    13     5     6    1
    14     5     7    1
    15     5    26    1
    16     7     8    1
    17     7    36    1
    18     7    37    1
    19     8    25    1
    20     8     9    1
    21     9    10    1
    22     9    38    1
    23     9    39    1
    24    10    11    1
    25    10    40    1
    26    10    41    1
    27    11    12    1
    28    11    24    1
    29    12    13    1
    30    12    42    1
    31    12    43    1
    32    13    14    2
    33    13    15   am
    34    15    16    1
    35    15    44    1
    36    16    17    1
    37    16    23    1
    38    16    18    1
    39    18    19    1
    40    18    45    1
    41    18    46    1
    42    19    20    1
    43    19    47    1
    44    19    48    1
    45    20    21    2
    46    20    22    2
    47    20    23    1
    48    23    49    1
    49    23    50    1
    50    24    25    1
    51    24    51    1
    52    24    52    1
    53    25    53    1
    54    25    54    1
    55    26    27    1
    56    27    28    2
@<TRIPOS>SUBSTRUCTURE
     1 ZINC001328997126        1 TEMP              0 ****  ****    0 ROOT


##########                                Name:    ZINC001217683559
##########                DOCK_Rotatable_Bonds:                   3
##########                         Heavy_Atoms:                  25
##########                    Molecular_Weight:             397.234
##########                DOCK_Rotatable_Bonds:                   3
##########                       Formal_Charge:          0.00999987
##########                     HBond_Acceptors:                   7
##########                        HBond_Donors:                   0
##########                         Heavy_Atoms:                  25
##########                          Grid_Score:          -36.746429
##########                     Grid_vdw_energy:          -37.032040
##########                      Grid_es_energy:            0.285609
##########           Internal_energy_repulsive:           32.138657

@<TRIPOS>MOLECULE
ZINC001217683559
 38 42 1 0 0
SMALL
USER_CHARGES


@<TRIPOS>ATOM
      1 Br1        -8.3693    1.6263   53.7573 Br      1  ZINC001217683559    0.0100
      2 C2         -9.3840    0.1077   53.2670 C.ar    1  ZINC001217683559   -0.1200
      3 C3        -10.6039   -0.1480   53.8725 C.ar    1  ZINC001217683559   -0.0500
      4 C4        -11.3136   -1.2735   53.4814 C.ar    1  ZINC001217683559   -0.1500
      5 C5        -10.7880   -2.1019   52.5062 C.ar    1  ZINC001217683559    0.1200
      6 N6         -9.6257   -1.8358   51.9470 N.ar    1  ZINC001217683559   -0.4400
      7 C7         -8.9183   -0.7671   52.2874 C.ar    1  ZINC001217683559    0.2200
      8 C8         -7.6127   -0.5080   51.6294 C.2     1  ZINC001217683559    0.2100
      9 N9         -7.0291   -1.2689   50.7397 N.2     1  ZINC001217683559   -0.3300
     10 O10        -5.9732   -0.7818   50.3955 O.3     1  ZINC001217683559    0.1000
     11 C11        -5.7681    0.3729   51.0485 C.2     1  ZINC001217683559    0.2300
     12 C12        -4.6006    1.2675   50.9095 C.2     1  ZINC001217683559   -0.0600
     13 C13        -3.4650    0.8198   50.2955 C.2     1  ZINC001217683559    0.1800
     14 N14        -2.3888    1.6343   50.1638 N.pl3   1  ZINC001217683559   -0.2900
     15 N15        -1.1190    1.4580   49.5955 N.2     1  ZINC001217683559   -0.3300
     16 C16        -0.4685    2.5872   49.7478 C.2     1  ZINC001217683559    0.2800
     17 C17         0.9409    2.8468   49.2816 C.3     1  ZINC001217683559   -0.0300
     18 C18         1.6749    1.5821   48.8053 C.3     1  ZINC001217683559   -0.1200
     19 C19         2.2610    2.4435   47.6741 C.3     1  ZINC001217683559   -0.1400
     20 C20         1.0272    3.3482   47.8304 C.3     1  ZINC001217683559   -0.1200
     21 N21        -1.2400    3.4654   50.3731 N.2     1  ZINC001217683559   -0.5300
     22 C22        -2.4183    2.9151   50.6410 C.2     1  ZINC001217683559    0.2900
     23 C23        -3.5766    3.4018   51.2777 C.2     1  ZINC001217683559   -0.1000
     24 C24        -4.6588    2.5908   51.4068 C.2     1  ZINC001217683559   -0.0200
     25 N25        -6.8124    0.5588   51.8347 N.2     1  ZINC001217683559   -0.4300
     26 H26       -10.9929    0.5140   54.6320 H       1  ZINC001217683559    0.1600
     27 H27       -12.2674   -1.5013   53.9341 H       1  ZINC001217683559    0.1500
     28 H28       -11.3382   -2.9792   52.1994 H       1  ZINC001217683559    0.1800
     29 H29        -3.4242   -0.1893   49.9130 H       1  ZINC001217683559    0.1900
     30 H30         1.5158    3.4477   49.9861 H       1  ZINC001217683559    0.1200
     31 H31         2.4230    1.2198   49.5106 H       1  ZINC001217683559    0.0700
     32 H32         1.0069    0.7957   48.4541 H       1  ZINC001217683559    0.1000
     33 H33         3.1980    2.9334   47.9390 H       1  ZINC001217683559    0.0800
     34 H34         2.3072    1.9302   46.7137 H       1  ZINC001217683559    0.0800
     35 H35         0.1821    3.0445   47.2125 H       1  ZINC001217683559    0.0900
     36 H36         1.2523    4.4115   47.7484 H       1  ZINC001217683559    0.0700
     37 H37        -3.6056    4.4126   51.6569 H       1  ZINC001217683559    0.1700
     38 H38        -5.5536    2.9505   51.8928 H       1  ZINC001217683559    0.1700
@<TRIPOS>BOND
     1     1     2    1
     2     2     7   ar
     3     2     3   ar
     4     3     4   ar
     5     3    26    1
     6     4     5   ar
     7     4    27    1
     8     5     6   ar
     9     5    28    1
    10     6     7   ar
    11     7     8    1
    12     8    25    1
    13     8     9    2
    14     9    10    1
    15    10    11    1
    16    11    12    1
    17    11    25    2
    18    12    24    1
    19    12    13    2
    20    13    14    1
    21    13    29    1
    22    14    22    1
    23    14    15    1
    24    15    16    2
    25    16    17    1
    26    16    21    1
    27    17    20    1
    28    17    18    1
    29    17    30    1
    30    18    19    1
    31    18    31    1
    32    18    32    1
    33    19    20    1
    34    19    33    1
    35    19    34    1
    36    20    35    1
    37    20    36    1
    38    21    22    2
    39    22    23    1
    40    23    24    2
    41    23    37    1
    42    24    38    1
@<TRIPOS>SUBSTRUCTURE
     1 ZINC001217683559        1 TEMP              0 ****  ****    0 ROOT


##########                                Name:    ZINC001124460178
##########                DOCK_Rotatable_Bonds:                  12
##########                         Heavy_Atoms:                  22
##########                    Molecular_Weight:             328.479
##########                DOCK_Rotatable_Bonds:                  12
##########                       Formal_Charge:          -0.0100003
##########                     HBond_Acceptors:                   7
##########                        HBond_Donors:                   2
##########                         Heavy_Atoms:                  22
##########                          Grid_Score:          -36.712582
##########                     Grid_vdw_energy:          -36.034859
##########                      Grid_es_energy:           -0.677724
##########           Internal_energy_repulsive:           13.430814

@<TRIPOS>MOLECULE
ZINC001124460178
 50 50 1 0 0
SMALL
USER_CHARGES


@<TRIPOS>ATOM
      1 C1          3.2324    1.3254   50.8395 C.3     1  ZINC001124460178   -0.0700
      2 C2          2.0708    2.1448   51.3402 C.2     1  ZINC001124460178    0.3100
      3 N3          2.1294    2.7643   52.4830 N.2     1  ZINC001124460178   -0.5000
      4 S4          0.6342    3.5530   52.6578 S.3     1  ZINC001124460178    0.1800
      5 C5          0.0065    2.9922   51.1543 C.2     1  ZINC001124460178    0.3400
      6 N6         -1.2368    3.2576   50.6094 N.pl3   1  ZINC001124460178   -0.6600
      7 C7         -1.8837    2.2683   49.7441 C.3     1  ZINC001124460178    0.0900
      8 C8         -3.1132    1.6968   50.4532 C.3     1  ZINC001124460178    0.0800
      9 H9         -3.0119    0.6152   50.5413 H       1  ZINC001124460178    0.1200
     10 O10        -3.2219    2.2728   51.7564 O.3     1  ZINC001124460178   -0.5500
     11 C11        -4.3685    2.0272   49.6432 C.3     1  ZINC001124460178    0.0900
     12 N12        -5.5341    2.0358   50.5308 N.am    1  ZINC001124460178   -0.6100
     13 C13        -6.0364    3.3027   51.0680 C.3     1  ZINC001124460178    0.0800
     14 C14        -6.1441    0.8780   50.8531 C.2     1  ZINC001124460178    0.5100
     15 O15        -5.7273   -0.1710   50.4096 O.2     1  ZINC001124460178   -0.5400
     16 C16        -7.3442    0.8870   51.7646 C.3     1  ZINC001124460178   -0.1400
     17 C17        -7.8193   -0.5489   51.9964 C.3     1  ZINC001124460178   -0.1100
     18 C18        -9.1854   -0.5291   52.6852 C.3     1  ZINC001124460178   -0.1200
     19 C19        -9.9447   -1.8139   52.3487 C.3     1  ZINC001124460178   -0.1200
     20 C20       -11.2035   -1.9038   53.2138 C.3     1  ZINC001124460178   -0.1000
     21 C21       -12.3478   -1.1540   52.5289 C.3     1  ZINC001124460178   -0.1500
     22 C22       -11.5930   -3.3721   53.3963 C.3     1  ZINC001124460178   -0.1500
     23 N23         0.9697    2.2607   50.6348 N.2     1  ZINC001124460178   -0.5800
     24 H24         3.8980    1.9590   50.2533 H       1  ZINC001124460178    0.0900
     25 H25         3.7780    0.9121   51.6877 H       1  ZINC001124460178    0.0900
     26 H26         2.8613    0.5126   50.2151 H       1  ZINC001124460178    0.0900
     27 H27        -1.6803    4.0990   50.8002 H       1  ZINC001124460178    0.4200
     28 H28        -2.1901    2.7449   48.8129 H       1  ZINC001124460178    0.0800
     29 H29        -1.1827    1.4625   49.5262 H       1  ZINC001124460178    0.0900
     30 H30        -3.9750    1.9476   52.2686 H       1  ZINC001124460178    0.3800
     31 H31        -4.2557    3.0084   49.1822 H       1  ZINC001124460178    0.0900
     32 H32        -4.5084    1.2749   48.8670 H       1  ZINC001124460178    0.1000
     33 H33        -6.7802    3.7166   50.3870 H       1  ZINC001124460178    0.0600
     34 H34        -6.4928    3.1287   52.0424 H       1  ZINC001124460178    0.0800
     35 H35        -5.2100    4.0055   51.1741 H       1  ZINC001124460178    0.0800
     36 H36        -7.0724    1.3383   52.7188 H       1  ZINC001124460178    0.0900
     37 H37        -8.1457    1.4650   51.3045 H       1  ZINC001124460178    0.0900
     38 H38        -7.9026   -1.0631   51.0389 H       1  ZINC001124460178    0.0700
     39 H39        -7.1013   -1.0716   52.6283 H       1  ZINC001124460178    0.0700
     40 H40        -9.0472   -0.4607   53.7643 H       1  ZINC001124460178    0.0600
     41 H41        -9.7556    0.3319   52.3366 H       1  ZINC001124460178    0.0600
     42 H42       -10.2273   -1.8039   51.2961 H       1  ZINC001124460178    0.0600
     43 H43        -9.3064   -2.6754   52.5454 H       1  ZINC001124460178    0.0600
     44 H44       -11.0074   -1.4561   54.1881 H       1  ZINC001124460178    0.0700
     45 H45       -12.5438   -1.6017   51.5546 H       1  ZINC001124460178    0.0500
     46 H46       -13.2445   -1.2180   53.1452 H       1  ZINC001124460178    0.0500
     47 H47       -12.0703   -0.1080   52.3988 H       1  ZINC001124460178    0.0500
     48 H48       -10.7778   -3.9063   53.8843 H       1  ZINC001124460178    0.0600
     49 H49       -12.4897   -3.4362   54.0128 H       1  ZINC001124460178    0.0500
     50 H50       -11.7890   -3.8199   52.4222 H       1  ZINC001124460178    0.0500
@<TRIPOS>BOND
     1     1     2    1
     2     1    24    1
     3     1    25    1
     4     1    26    1
     5     2    23    1
     6     2     3    2
     7     3     4    1
     8     4     5    1
     9     5     6    1
    10     5    23    2
    11     6     7    1
    12     6    27    1
    13     7     8    1
    14     7    28    1
    15     7    29    1
    16     8     9    1
    17     8    10    1
    18     8    11    1
    19    10    30    1
    20    11    12    1
    21    11    31    1
    22    11    32    1
    23    12    13    1
    24    12    14   am
    25    13    33    1
    26    13    34    1
    27    13    35    1
    28    14    15    2
    29    14    16    1
    30    16    17    1
    31    16    36    1
    32    16    37    1
    33    17    18    1
    34    17    38    1
    35    17    39    1
    36    18    19    1
    37    18    40    1
    38    18    41    1
    39    19    20    1
    40    19    42    1
    41    19    43    1
    42    20    21    1
    43    20    22    1
    44    20    44    1
    45    21    45    1
    46    21    46    1
    47    21    47    1
    48    22    48    1
    49    22    49    1
    50    22    50    1
@<TRIPOS>SUBSTRUCTURE
     1 ZINC001124460178        1 TEMP              0 ****  ****    0 ROOT


##########                                Name:    ZINC000550217006
##########                DOCK_Rotatable_Bonds:                   7
##########                         Heavy_Atoms:                  27
##########                    Molecular_Weight:             367.404
##########                DOCK_Rotatable_Bonds:                   7
##########                       Formal_Charge:          0.00999951
##########                     HBond_Acceptors:                   7
##########                        HBond_Donors:                   3
##########                         Heavy_Atoms:                  27
##########                          Grid_Score:          -36.702881
##########                     Grid_vdw_energy:          -35.941788
##########                      Grid_es_energy:           -0.761095
##########           Internal_energy_repulsive:            6.824663

@<TRIPOS>MOLECULE
ZINC000550217006
 48 50 1 0 0
SMALL
USER_CHARGES


@<TRIPOS>ATOM
      1 C1          1.9471    3.3098   55.4529 C.3     1  ZINC000550217006   -0.1500
      2 C2          2.6829    3.4135   54.1153 C.3     1  ZINC000550217006    0.0500
      3 O3          2.7471    2.1227   53.5058 O.3     1  ZINC000550217006   -0.3100
      4 C4          3.2915    2.0539   52.2624 C.ar    1  ZINC000550217006    0.1400
      5 C5          4.6425    1.7788   52.1100 C.ar    1  ZINC000550217006   -0.2100
      6 C6          5.1936    1.7089   50.8449 C.ar    1  ZINC000550217006   -0.0800
      7 C7          4.3998    1.9133   49.7316 C.ar    1  ZINC000550217006   -0.1600
      8 C8          3.0528    2.1881   49.8810 C.ar    1  ZINC000550217006   -0.0700
      9 C9          2.4958    2.2530   51.1433 C.ar    1  ZINC000550217006   -0.1200
     10 C10         1.0277    2.5519   51.3054 C.3     1  ZINC000550217006   -0.0800
     11 C11         0.2199    1.6766   50.3451 C.3     1  ZINC000550217006    0.1300
     12 N12        -1.2050    1.7841   50.6676 N.am    1  ZINC000550217006   -0.7200
     13 C13        -2.1247    1.7286   49.6840 C.2     1  ZINC000550217006    0.5600
     14 O14        -1.7718    1.5908   48.5293 O.2     1  ZINC000550217006   -0.5300
     15 C15        -3.5650    1.8355   50.0101 C.ar    1  ZINC000550217006   -0.0800
     16 C16        -4.1614    3.0917   50.1428 C.ar    1  ZINC000550217006   -0.1000
     17 C17        -5.4974    3.1865   50.4467 C.ar    1  ZINC000550217006   -0.0500
     18 C18        -6.2768    2.0316   50.6260 C.ar    1  ZINC000550217006   -0.1300
     19 C19        -5.6857    0.7758   50.4911 C.ar    1  ZINC000550217006    0.1800
     20 C20        -4.3278    0.6868   50.1794 C.ar    1  ZINC000550217006   -0.0900
     21 N21        -6.3792   -0.4132   50.6391 N.am    1  ZINC000550217006   -0.6600
     22 C22        -7.2983   -0.6640   51.5665 C.2     1  ZINC000550217006    0.5100
     23 O23        -7.7997   -1.7672   51.6147 O.2     1  ZINC000550217006   -0.5100
     24 C24        -7.7343    0.3799   52.5577 C.3     1  ZINC000550217006    0.0900
     25 N25        -8.3718    1.4806   51.8351 N.am    1  ZINC000550217006   -0.7100
     26 C26        -7.6976    2.2178   50.9541 C.2     1  ZINC000550217006    0.5600
     27 O27        -8.2987    3.1060   50.3820 O.2     1  ZINC000550217006   -0.5200
     28 H28         2.4823    2.6240   56.1097 H       1  ZINC000550217006    0.0700
     29 H29         1.8981    4.2944   55.9178 H       1  ZINC000550217006    0.0800
     30 H30         0.9369    2.9371   55.2839 H       1  ZINC000550217006    0.0700
     31 H31         2.1477    4.0992   53.4585 H       1  ZINC000550217006    0.0600
     32 H32         3.6931    3.7862   54.2843 H       1  ZINC000550217006    0.0600
     33 H33         5.2632    1.6198   52.9794 H       1  ZINC000550217006    0.1300
     34 H34         6.2454    1.4948   50.7256 H       1  ZINC000550217006    0.1300
     35 H35         4.8325    1.8586   48.7436 H       1  ZINC000550217006    0.1300
     36 H36         2.4348    2.3477   49.0098 H       1  ZINC000550217006    0.1300
     37 H37         0.7251    2.3410   52.3311 H       1  ZINC000550217006    0.0800
     38 H38         0.8439    3.6027   51.0812 H       1  ZINC000550217006    0.0800
     39 H39         0.3869    2.0108   49.3211 H       1  ZINC000550217006    0.0700
     40 H40         0.5377    0.6387   50.4449 H       1  ZINC000550217006    0.0700
     41 H41        -1.4867    1.8953   51.5892 H       1  ZINC000550217006    0.4000
     42 H42        -3.5728    3.9870   50.0070 H       1  ZINC000550217006    0.1400
     43 H43        -5.9538    4.1598   50.5492 H       1  ZINC000550217006    0.1500
     44 H44        -3.8647   -0.2834   50.0768 H       1  ZINC000550217006    0.1500
     45 H45        -6.1774   -1.1249   50.0116 H       1  ZINC000550217006    0.4200
     46 H46        -8.4453   -0.0568   53.2591 H       1  ZINC000550217006    0.1300
     47 H47        -6.8659    0.7536   53.1002 H       1  ZINC000550217006    0.1000
     48 H48        -9.3068    1.6779   52.0009 H       1  ZINC000550217006    0.4200
@<TRIPOS>BOND
     1     1     2    1
     2     1    28    1
     3     1    29    1
     4     1    30    1
     5     2     3    1
     6     2    31    1
     7     2    32    1
     8     3     4    1
     9     4     9   ar
    10     4     5   ar
    11     5     6   ar
    12     5    33    1
    13     6     7   ar
    14     6    34    1
    15     7     8   ar
    16     7    35    1
    17     8     9   ar
    18     8    36    1
    19     9    10    1
    20    10    11    1
    21    10    37    1
    22    10    38    1
    23    11    12    1
    24    11    39    1
    25    11    40    1
    26    12    13   am
    27    12    41    1
    28    13    14    2
    29    13    15    1
    30    15    20   ar
    31    15    16   ar
    32    16    17   ar
    33    16    42    1
    34    17    18   ar
    35    17    43    1
    36    18    26    1
    37    18    19   ar
    38    19    20   ar
    39    19    21    1
    40    20    44    1
    41    21    22   am
    42    21    45    1
    43    22    23    2
    44    22    24    1
    45    24    25    1
    46    24    46    1
    47    24    47    1
    48    25    26   am
    49    25    48    1
    50    26    27    2
@<TRIPOS>SUBSTRUCTURE
     1 ZINC000550217006        1 TEMP              0 ****  ****    0 ROOT


##########                                Name:    ZINC001141221454
##########                DOCK_Rotatable_Bonds:                   7
##########                         Heavy_Atoms:                  27
##########                    Molecular_Weight:             369.439
##########                DOCK_Rotatable_Bonds:                   7
##########                       Formal_Charge:          0.00999935
##########                     HBond_Acceptors:                   6
##########                        HBond_Donors:                   1
##########                         Heavy_Atoms:                  27
##########                          Grid_Score:          -36.688591
##########                     Grid_vdw_energy:          -35.402229
##########                      Grid_es_energy:           -1.286360
##########           Internal_energy_repulsive:           12.459101

@<TRIPOS>MOLECULE
ZINC001141221454
 51 54 1 0 0
SMALL
USER_CHARGES


@<TRIPOS>ATOM
      1 C1         -2.1523    2.2660   49.0986 C.3     1  ZINC001141221454    0.0300
      2 O2         -3.2161    2.9276   49.7862 O.3     1  ZINC001141221454   -0.3100
      3 C3         -4.3123    2.1827   50.0896 C.ar    1  ZINC001141221454    0.0900
      4 C4         -4.2844    0.8068   49.9239 C.ar    1  ZINC001141221454   -0.1800
      5 C5         -5.3998    0.0513   50.2335 C.ar    1  ZINC001141221454   -0.0900
      6 C6         -6.5433    0.6659   50.7080 C.ar    1  ZINC001141221454   -0.1200
      7 C7         -6.5756    2.0385   50.8743 C.ar    1  ZINC001141221454   -0.0800
      8 C8         -7.8242    2.7053   51.3914 C.3     1  ZINC001141221454    0.0900
      9 N9         -8.2552    2.0441   52.6303 N.3     1  ZINC001141221454   -0.5100
     10 C10        -7.5894    2.6459   53.8146 C.3     1  ZINC001141221454    0.0300
     11 C11        -8.5145    2.2385   54.9908 C.3     1  ZINC001141221454   -0.0700
     12 C12        -9.9183    2.3288   54.3647 C.3     1  ZINC001141221454   -0.1000
     13 C13       -10.9913    3.2308   54.9607 C.3     1  ZINC001141221454   -0.1400
     14 C14       -11.1290    1.7080   55.0491 C.3     1  ZINC001141221454   -0.1800
     15 H15       -11.8771    1.2325   54.4149 H       1  ZINC001141221454    0.1300
     16 C16       -10.9157    1.0666   56.3959 C.2     1  ZINC001141221454    0.5500
     17 O17       -11.1459    1.6925   57.4090 O.2     1  ZINC001141221454   -0.5300
     18 N18       -10.4691   -0.2025   56.4748 N.am    1  ZINC001141221454   -0.7300
     19 C19       -10.2600   -0.8255   57.7841 C.3     1  ZINC001141221454    0.1700
     20 C20       -10.5633   -2.2989   57.6935 C.ar    1  ZINC001141221454   -0.1600
     21 C21       -11.6092   -2.7531   56.9051 C.ar    1  ZINC001141221454   -0.0600
     22 C22       -11.8511   -4.1175   56.8517 C.ar    1  ZINC001141221454   -0.1700
     23 C23       -11.0476   -4.9730   57.5809 C.ar    1  ZINC001141221454    0.1100
     24 N24       -10.0609   -4.5053   58.3207 N.ar    1  ZINC001141221454   -0.4800
     25 C25        -9.7985   -3.2150   58.3911 C.ar    1  ZINC001141221454    0.1200
     26 C26        -9.7090    2.2224   52.8491 C.3     1  ZINC001141221454    0.0700
     27 C27        -5.4607    2.7987   50.5717 C.ar    1  ZINC001141221454    0.0900
     28 F28        -5.4918    4.1396   50.7340 F       1  ZINC001141221454   -0.1300
     29 H29        -1.3417    2.9721   48.9184 H       1  ZINC001141221454    0.1000
     30 H30        -1.7854    1.4391   49.7067 H       1  ZINC001141221454    0.0600
     31 H31        -2.5184    1.8823   48.1463 H       1  ZINC001141221454    0.0600
     32 H32        -3.3918    0.3252   49.5529 H       1  ZINC001141221454    0.1400
     33 H33        -5.3779   -1.0207   50.1039 H       1  ZINC001141221454    0.1300
     34 H34        -7.4133    0.0731   50.9491 H       1  ZINC001141221454    0.1300
     35 H35        -7.6178    3.7563   51.5933 H       1  ZINC001141221454    0.0600
     36 H36        -8.6139    2.6271   50.6442 H       1  ZINC001141221454    0.0900
     37 H37        -6.5915    2.2281   53.9480 H       1  ZINC001141221454    0.0800
     38 H38        -7.5434    3.7308   53.7196 H       1  ZINC001141221454    0.0500
     39 H39        -8.3011    1.2202   55.3156 H       1  ZINC001141221454    0.0900
     40 H40        -8.4156    2.9386   55.8205 H       1  ZINC001141221454    0.0700
     41 H41       -10.7455    3.7681   55.8767 H       1  ZINC001141221454    0.1000
     42 H42       -11.6487    3.7566   54.2684 H       1  ZINC001141221454    0.1100
     43 H43       -10.2861   -0.7035   55.6645 H       1  ZINC001141221454    0.4000
     44 H44        -9.2236   -0.6861   58.0915 H       1  ZINC001141221454    0.0800
     45 H45       -10.9215   -0.3628   58.5164 H       1  ZINC001141221454    0.0800
     46 H46       -12.2212   -2.0608   56.3460 H       1  ZINC001141221454    0.1400
     47 H47       -12.6578   -4.5065   56.2480 H       1  ZINC001141221454    0.1400
     48 H48       -11.2297   -6.0368   57.5450 H       1  ZINC001141221454    0.1600
     49 H49        -8.9822   -2.8693   59.0078 H       1  ZINC001141221454    0.1600
     50 H50       -10.0504    3.1351   52.3605 H       1  ZINC001141221454    0.0500
     51 H51       -10.2533    1.3633   52.4569 H       1  ZINC001141221454    0.0900
@<TRIPOS>BOND
     1     1     2    1
     2     1    29    1
     3     1    30    1
     4     1    31    1
     5     2     3    1
     6     3    27   ar
     7     3     4   ar
     8     4     5   ar
     9     4    32    1
    10     5     6   ar
    11     5    33    1
    12     6     7   ar
    13     6    34    1
    14     7     8    1
    15     7    27   ar
    16     8     9    1
    17     8    35    1
    18     8    36    1
    19     9    26    1
    20     9    10    1
    21    10    11    1
    22    10    37    1
    23    10    38    1
    24    11    12    1
    25    11    39    1
    26    11    40    1
    27    12    14    1
    28    12    13    1
    29    12    26    1
    30    13    14    1
    31    13    41    1
    32    13    42    1
    33    14    15    1
    34    14    16    1
    35    16    17    2
    36    16    18   am
    37    18    19    1
    38    18    43    1
    39    19    20    1
    40    19    44    1
    41    19    45    1
    42    20    25   ar
    43    20    21   ar
    44    21    22   ar
    45    21    46    1
    46    22    23   ar
    47    22    47    1
    48    23    24   ar
    49    23    48    1
    50    24    25   ar
    51    25    49    1
    52    26    50    1
    53    26    51    1
    54    27    28    1
@<TRIPOS>SUBSTRUCTURE
     1 ZINC001141221454        1 TEMP              0 ****  ****    0 ROOT


##########                                Name:    ZINC000081577146
##########                DOCK_Rotatable_Bonds:                   4
##########                         Heavy_Atoms:                  25
##########                    Molecular_Weight:             355.464
##########                DOCK_Rotatable_Bonds:                   4
##########                       Formal_Charge:                0.02
##########                     HBond_Acceptors:                   7
##########                        HBond_Donors:                   0
##########                         Heavy_Atoms:                  25
##########                          Grid_Score:          -36.653183
##########                     Grid_vdw_energy:          -36.728931
##########                      Grid_es_energy:            0.075748
##########           Internal_energy_repulsive:           18.918388

@<TRIPOS>MOLECULE
ZINC000081577146
 46 49 1 0 0
SMALL
USER_CHARGES


@<TRIPOS>ATOM
      1 C1          2.9389    2.3295   47.4408 C.3     1  ZINC000081577146   -0.0700
      2 C2          1.9657    2.0534   48.5578 C.2     1  ZINC000081577146    0.2900
      3 N3          2.3142    1.3448   49.5920 N.2     1  ZINC000081577146   -0.4800
      4 S4          0.9409    1.2798   50.5912 S.3     1  ZINC000081577146    0.1900
      5 C5         -0.0398    2.2279   49.5385 C.2     1  ZINC000081577146    0.2700
      6 N6         -1.3587    2.6009   49.7249 N.3     1  ZINC000081577146   -0.4300
      7 C7         -1.6425    2.8397   51.1468 C.3     1  ZINC000081577146    0.0700
      8 C8         -3.0854    3.3259   51.3017 C.3     1  ZINC000081577146    0.0500
      9 N9         -4.0009    2.3192   50.7468 N.3     1  ZINC000081577146   -0.5200
     10 C10        -5.4015    2.7153   50.9447 C.3     1  ZINC000081577146    0.1900
     11 H11        -5.7631    3.2293   50.0541 H       1  ZINC000081577146    0.0700
     12 C12        -5.5010    3.6525   52.1501 C.3     1  ZINC000081577146   -0.1500
     13 C13        -6.2406    1.4882   51.1919 C.2     1  ZINC000081577146    0.1900
     14 N14        -5.9755    0.2894   50.7537 N.2     1  ZINC000081577146   -0.4500
     15 C15        -6.9388   -0.5474   51.1673 C.2     1  ZINC000081577146   -0.0200
     16 C16        -7.8290    0.1795   51.8901 C.2     1  ZINC000081577146    0.0000
     17 C17        -9.0549   -0.3259   52.5435 C.ar    1  ZINC000081577146   -0.0200
     18 C18        -9.4127   -1.6692   52.4188 C.ar    1  ZINC000081577146   -0.1000
     19 C19       -10.5579   -2.1345   53.0316 C.ar    1  ZINC000081577146   -0.1200
     20 C20       -11.3511   -1.2728   53.7680 C.ar    1  ZINC000081577146   -0.1100
     21 C21       -11.0024    0.0600   53.8951 C.ar    1  ZINC000081577146   -0.1100
     22 C22        -9.8565    0.5369   53.2925 C.ar    1  ZINC000081577146   -0.0900
     23 O23        -7.3762    1.4526   51.9024 O.3     1  ZINC000081577146   -0.2000
     24 C24        -3.7171    2.0803   49.3247 C.3     1  ZINC000081577146    0.0600
     25 C25        -2.2741    1.5942   49.1699 C.3     1  ZINC000081577146    0.0500
     26 N26         0.7409    2.5245   48.5210 N.2     1  ZINC000081577146   -0.5400
     27 H27         3.4865    3.2474   47.6546 H       1  ZINC000081577146    0.0900
     28 H28         3.6402    1.4994   47.3564 H       1  ZINC000081577146    0.0900
     29 H29         2.3939    2.4415   46.5034 H       1  ZINC000081577146    0.0900
     30 H30        -1.5090    1.9130   51.7050 H       1  ZINC000081577146    0.0700
     31 H31        -0.9601    3.5977   51.5315 H       1  ZINC000081577146    0.1100
     32 H32        -3.3072    3.4760   52.3582 H       1  ZINC000081577146    0.1000
     33 H33        -3.2116    4.2668   50.7660 H       1  ZINC000081577146    0.0600
     34 H34        -5.1395    3.1385   53.0407 H       1  ZINC000081577146    0.0800
     35 H35        -4.8941    4.5401   51.9712 H       1  ZINC000081577146    0.0800
     36 H36        -6.5403    3.9464   52.2970 H       1  ZINC000081577146    0.0700
     37 H37        -6.9959   -1.6063   50.9627 H       1  ZINC000081577146    0.1900
     38 H38        -8.7947   -2.3428   51.8438 H       1  ZINC000081577146    0.1300
     39 H39       -10.8359   -3.1738   52.9359 H       1  ZINC000081577146    0.1300
     40 H40       -12.2467   -1.6421   54.2453 H       1  ZINC000081577146    0.1300
     41 H41       -11.6263    0.7277   54.4707 H       1  ZINC000081577146    0.1300
     42 H42        -9.5852    1.5774   53.3929 H       1  ZINC000081577146    0.1300
     43 H43        -4.3995    1.3223   48.9401 H       1  ZINC000081577146    0.0900
     44 H44        -3.8505    3.0070   48.7666 H       1  ZINC000081577146    0.0500
     45 H45        -2.0524    1.4440   48.1133 H       1  ZINC000081577146    0.1000
     46 H46        -2.1479    0.6533   49.7056 H       1  ZINC000081577146    0.0800
@<TRIPOS>BOND
     1     1     2    1
     2     1    27    1
     3     1    28    1
     4     1    29    1
     5     2    26    1
     6     2     3    2
     7     3     4    1
     8     4     5    1
     9     5     6    1
    10     5    26    2
    11     6    25    1
    12     6     7    1
    13     7     8    1
    14     7    30    1
    15     7    31    1
    16     8     9    1
    17     8    32    1
    18     8    33    1
    19     9    10    1
    20     9    24    1
    21    10    11    1
    22    10    12    1
    23    10    13    1
    24    12    34    1
    25    12    35    1
    26    12    36    1
    27    13    23    1
    28    13    14    2
    29    14    15    1
    30    15    16    2
    31    15    37    1
    32    16    17    1
    33    16    23    1
    34    17    22   ar
    35    17    18   ar
    36    18    19   ar
    37    18    38    1
    38    19    20   ar
    39    19    39    1
    40    20    21   ar
    41    20    40    1
    42    21    22   ar
    43    21    41    1
    44    22    42    1
    45    24    25    1
    46    24    43    1
    47    24    44    1
    48    25    45    1
    49    25    46    1
@<TRIPOS>SUBSTRUCTURE
     1 ZINC000081577146        1 TEMP              0 ****  ****    0 ROOT


##########                                Name:    ZINC000006915700
##########                DOCK_Rotatable_Bonds:                   5
##########                         Heavy_Atoms:                  26
##########                    Molecular_Weight:             369.447
##########                DOCK_Rotatable_Bonds:                   5
##########                       Formal_Charge:        -1.04308e-07
##########                     HBond_Acceptors:                   8
##########                        HBond_Donors:                   1
##########                         Heavy_Atoms:                  26
##########                          Grid_Score:          -36.641125
##########                     Grid_vdw_energy:          -35.743599
##########                      Grid_es_energy:           -0.897525
##########           Internal_energy_repulsive:            4.880801

@<TRIPOS>MOLECULE
ZINC000006915700
 45 48 1 0 0
SMALL
USER_CHARGES


@<TRIPOS>ATOM
      1 C1          2.3278    1.6216   50.4397 C.3     1  <0>        -0.1200
      2 C2          0.8435    1.8559   50.5545 C.ar    1  <0>        -0.0500
      3 C3          0.3434    2.6039   51.6054 C.ar    1  <0>        -0.1300
      4 C4         -1.0145    2.8222   51.7158 C.ar    1  <0>        -0.0600
      5 C5         -1.8836    2.2869   50.7649 C.ar    1  <0>        -0.0700
      6 C6         -3.3421    2.5179   50.8772 C.2     1  <0>         0.4400
      7 N7         -3.7877    3.7236   51.2052 N.2     1  <0>        -0.5200
      8 C8         -5.1011    3.9471   51.3099 C.2     1  <0>         0.3600
      9 C9         -5.8507    5.0726   51.6271 C.2     1  <0>        -0.3200
     10 C10        -7.1985    4.7125   51.5815 C.2     1  <0>         0.5500
     11 O11        -8.1425    5.4525   51.8054 O.2     1  <0>        -0.5200
     12 N12        -7.2808    3.4097   51.2477 N.am    1  <0>        -0.5000
     13 N13        -5.9848    2.9142   51.0740 N.pl3   1  <0>        -0.3300
     14 C14        -5.4947    1.6852   50.7383 C.2     1  <0>         0.3900
     15 S15        -6.5952    0.3440   50.4302 S.3     1  <0>         0.1200
     16 C16        -7.4523    0.2687   52.0227 C.3     1  <0>        -0.1500
     17 C17        -8.3696   -0.9268   52.0432 C.2     1  <0>         0.5500
     18 O18        -8.0481   -1.9478   51.4731 O.2     1  <0>        -0.5200
     19 N19        -9.5474   -0.8612   52.6951 N.am    1  <0>        -0.6100
     20 C20       -10.0612    0.3099   53.4205 C.3     1  <0>         0.0900
     21 C21       -11.4248   -0.0872   54.0242 C.3     1  <0>        -0.1300
     22 C22       -11.3418   -1.6355   54.0819 C.3     1  <0>        -0.1400
     23 C23       -10.5367   -1.9498   52.7937 C.3     1  <0>         0.1000
     24 N24        -4.1860    1.5105   50.6411 N.2     1  <0>        -0.5600
     25 C25        -1.3731    1.5336   49.7076 C.ar    1  <0>        -0.0500
     26 C26        -0.0128    1.3268   49.6053 C.ar    1  <0>        -0.1300
     27 H27         2.7775    2.4217   49.8516 H       1  <0>         0.0800
     28 H28         2.7717    1.6089   51.4351 H       1  <0>         0.0700
     29 H29         2.5078    0.6650   49.9492 H       1  <0>         0.0700
     30 H30         1.0172    3.0175   52.3411 H       1  <0>         0.1300
     31 H31        -1.4038    3.4059   52.5368 H       1  <0>         0.1300
     32 H32        -5.4607    6.0508   51.8666 H       1  <0>         0.1800
     33 H33        -8.1006    2.9015   51.1449 H       1  <0>         0.4400
     34 H34        -6.7203    0.1788   52.8253 H       1  <0>         0.1400
     35 H35        -8.0368    1.1777   52.1640 H       1  <0>         0.1400
     36 H36        -9.3696    0.5857   54.2165 H       1  <0>         0.0800
     37 H37       -10.1897    1.1453   52.7322 H       1  <0>         0.0800
     38 H38       -11.5399    0.3303   55.0246 H       1  <0>         0.0900
     39 H39       -12.2411    0.2313   53.3759 H       1  <0>         0.0800
     40 H40       -10.8057   -1.9651   54.9719 H       1  <0>         0.0800
     41 H41       -12.3352   -2.0820   54.0384 H       1  <0>         0.0900
     42 H42       -11.1955   -1.9505   51.9253 H       1  <0>         0.0800
     43 H43       -10.0305   -2.9105   52.8876 H       1  <0>         0.0800
     44 H44        -2.0410    1.1165   48.9683 H       1  <0>         0.1400
     45 H45         0.3836    0.7440   48.7870 H       1  <0>         0.1300
@<TRIPOS>BOND
     1     1     2    1
     2     1    27    1
     3     1    28    1
     4     1    29    1
     5     2    26   ar
     6     2     3   ar
     7     3     4   ar
     8     3    30    1
     9     4     5   ar
    10     4    31    1
    11     5     6    1
    12     5    25   ar
    13     6    24    1
    14     6     7    2
    15     7     8    1
    16     8    13    1
    17     8     9    2
    18     9    10    1
    19     9    32    1
    20    10    11    2
    21    10    12   am
    22    12    13    1
    23    12    33    1
    24    13    14    1
    25    14    15    1
    26    14    24    2
    27    15    16    1
    28    16    17    1
    29    16    34    1
    30    16    35    1
    31    17    18    2
    32    17    19   am
    33    19    23    1
    34    19    20    1
    35    20    21    1
    36    20    36    1
    37    20    37    1
    38    21    22    1
    39    21    38    1
    40    21    39    1
    41    22    23    1
    42    22    40    1
    43    22    41    1
    44    23    42    1
    45    23    43    1
    46    25    26   ar
    47    25    44    1
    48    26    45    1
@<TRIPOS>SUBSTRUCTURE
     1 <0>         1 TEMP              0 ****  ****    0 ROOT


##########                                Name:    ZINC000265724350
##########                DOCK_Rotatable_Bonds:                   8
##########                         Heavy_Atoms:                  23
##########                    Molecular_Weight:              345.42
##########                DOCK_Rotatable_Bonds:                   8
##########                       Formal_Charge:          -0.0300002
##########                     HBond_Acceptors:                   9
##########                        HBond_Donors:                   2
##########                         Heavy_Atoms:                  23
##########                          Grid_Score:          -36.608917
##########                     Grid_vdw_energy:          -36.011482
##########                      Grid_es_energy:           -0.597435
##########           Internal_energy_repulsive:            5.517634

@<TRIPOS>MOLECULE
ZINC000265724350
 46 47 1 0 0
SMALL
USER_CHARGES


@<TRIPOS>ATOM
      1 C1         -1.8163    1.7463   49.8337 C.3     1  ZINC000265724350    0.0800
      2 N2         -3.0670    1.0847   50.2136 N.am    1  ZINC000265724350   -1.1100
      3 S3         -4.4148    1.9885   50.5433 S.o2    1  ZINC000265724350    2.7200
      4 O4         -4.1266    2.7222   51.7256 O.2     1  ZINC000265724350   -0.9300
      5 O5         -4.7946    2.6037   49.3200 O.2     1  ZINC000265724350   -0.9300
      6 C6         -5.7075    0.8651   50.9576 C.2     1  ZINC000265724350   -0.5600
      7 C7         -5.8799   -0.3661   50.4279 C.2     1  ZINC000265724350   -0.0900
      8 C8         -7.0203   -0.9192   51.0311 C.2     1  ZINC000265724350   -0.1400
      9 C9         -7.4918    0.0142   51.9091 C.2     1  ZINC000265724350   -0.0200
     10 C10        -8.6731   -0.1284   52.7666 C.2     1  ZINC000265724350    0.6000
     11 O11        -9.2318   -1.2057   52.8584 O.2     1  ZINC000265724350   -0.5000
     12 N12        -9.1398    0.9334   53.4529 N.am    1  ZINC000265724350   -0.7100
     13 C13       -10.3187    0.7905   54.3108 C.3     1  ZINC000265724350    0.1200
     14 C14        -9.8824    0.7649   55.7770 C.3     1  ZINC000265724350   -0.1100
     15 H15        -8.9416    0.2218   55.8668 H       1  ZINC000265724350    0.0800
     16 C16        -9.6936    2.1982   56.2779 C.3     1  ZINC000265724350   -0.1400
     17 C17       -10.9554    0.0686   56.6163 C.3     1  ZINC000265724350    0.0600
     18 N18       -10.3141   -0.8495   57.5671 N.3     1  ZINC000265724350   -0.5300
     19 C19       -10.8517   -2.2108   57.4294 C.3     1  ZINC000265724350    0.0100
     20 C20       -10.1159   -3.1443   58.3942 C.3     1  ZINC000265724350    0.0600
     21 O21       -10.2463   -2.6430   59.7272 O.3     1  ZINC000265724350   -0.3900
     22 C22        -9.7322   -1.3194   59.8975 C.3     1  ZINC000265724350    0.0600
     23 C23       -10.4642   -0.3674   58.9479 C.3     1  ZINC000265724350    0.0200
     24 O24        -6.6776    1.0885   51.8535 O.3     1  ZINC000265724350   -0.1100
     25 H25        -1.0468    0.9948   49.6570 H       1  ZINC000265724350    0.0900
     26 H26        -1.9736    2.3260   48.9240 H       1  ZINC000265724350    0.0600
     27 H27        -1.4979    2.4105   50.6372 H       1  ZINC000265724350    0.0700
     28 H28        -3.1056    0.1173   50.2720 H       1  ZINC000265724350    0.4200
     29 H29        -5.2574   -0.8361   49.6810 H       1  ZINC000265724350    0.1800
     30 H30        -7.4429   -1.8941   50.8380 H       1  ZINC000265724350    0.1700
     31 H31        -8.6952    1.7923   53.3787 H       1  ZINC000265724350    0.4100
     32 H32       -10.9918    1.6319   54.1466 H       1  ZINC000265724350    0.0800
     33 H33       -10.8336   -0.1392   54.0687 H       1  ZINC000265724350    0.0700
     34 H34        -8.9290    2.6943   55.6800 H       1  ZINC000265724350    0.0500
     35 H35       -10.6343    2.7414   56.1882 H       1  ZINC000265724350    0.0600
     36 H36        -9.3827    2.1800   57.3225 H       1  ZINC000265724350    0.0700
     37 H37       -11.5300    0.8156   57.1639 H       1  ZINC000265724350    0.0800
     38 H38       -11.6211   -0.4935   55.9612 H       1  ZINC000265724350    0.0400
     39 H39       -11.9157   -2.2077   57.6663 H       1  ZINC000265724350    0.0400
     40 H40       -10.7071   -2.5575   56.4061 H       1  ZINC000265724350    0.0900
     41 H41       -10.5497   -4.1427   58.3366 H       1  ZINC000265724350    0.1000
     42 H42        -9.0609   -3.1891   58.1237 H       1  ZINC000265724350    0.0600
     43 H43        -9.8885   -0.9978   60.9271 H       1  ZINC000265724350    0.1000
     44 H44        -8.6661   -1.3111   59.6708 H       1  ZINC000265724350    0.0600
     45 H45       -10.0367    0.6316   59.0330 H       1  ZINC000265724350    0.0900
     46 H46       -11.5220   -0.3348   59.2090 H       1  ZINC000265724350    0.0400
@<TRIPOS>BOND
     1     1     2    1
     2     1    25    1
     3     1    26    1
     4     1    27    1
     5     2     3   am
     6     2    28    1
     7     3     4    2
     8     3     5    2
     9     3     6    1
    10     6    24    1
    11     6     7    2
    12     7     8    1
    13     7    29    1
    14     8     9    2
    15     8    30    1
    16     9    10    1
    17     9    24    1
    18    10    11    2
    19    10    12   am
    20    12    13    1
    21    12    31    1
    22    13    14    1
    23    13    32    1
    24    13    33    1
    25    14    15    1
    26    14    16    1
    27    14    17    1
    28    16    34    1
    29    16    35    1
    30    16    36    1
    31    17    18    1
    32    17    37    1
    33    17    38    1
    34    18    23    1
    35    18    19    1
    36    19    20    1
    37    19    39    1
    38    19    40    1
    39    20    21    1
    40    20    41    1
    41    20    42    1
    42    21    22    1
    43    22    23    1
    44    22    43    1
    45    22    44    1
    46    23    45    1
    47    23    46    1
@<TRIPOS>SUBSTRUCTURE
     1 ZINC000265724350        1 TEMP              0 ****  ****    0 ROOT


##########                                Name:    ZINC000150894060
##########                DOCK_Rotatable_Bonds:                  10
##########                         Heavy_Atoms:                  27
##########                    Molecular_Weight:              366.42
##########                DOCK_Rotatable_Bonds:                  10
##########                       Formal_Charge:        -6.70552e-07
##########                     HBond_Acceptors:                   7
##########                        HBond_Donors:                   2
##########                         Heavy_Atoms:                  27
##########                          Grid_Score:          -36.599949
##########                     Grid_vdw_energy:          -32.488724
##########                      Grid_es_energy:           -4.111224
##########           Internal_energy_repulsive:           17.815924

@<TRIPOS>MOLECULE
ZINC000150894060
 49 51 1 0 0
SMALL
USER_CHARGES


@<TRIPOS>ATOM
      1 C1          3.2340    0.2660   43.2617 C.3     1  ZINC000150894060   -0.1000
      2 C2          4.5123   -0.5102   43.4479 C.2     1  ZINC000150894060   -0.0800
      3 C3          5.2595   -0.5886   44.5881 C.2     1  ZINC000150894060   -0.1000
      4 C4          4.9600    0.0736   45.8619 C.2     1  ZINC000150894060    0.6100
      5 O5          5.7053   -0.0712   46.8129 O.2     1  ZINC000150894060   -0.5100
      6 N6          3.8594    0.8425   45.9793 N.am    1  ZINC000150894060   -0.7200
      7 C7          3.5592    1.5025   47.2523 C.3     1  ZINC000150894060    0.1200
      8 C8          2.0447    1.5302   47.4678 C.3     1  ZINC000150894060   -0.1500
      9 C9          1.7372    2.1022   48.8531 C.3     1  ZINC000150894060    0.1200
     10 N10         0.2932    2.0473   49.0945 N.am    1  ZINC000150894060   -0.7300
     11 C11        -0.2475    2.7496   50.1097 C.2     1  ZINC000150894060    0.5600
     12 O12         0.4627    3.4298   50.8243 O.2     1  ZINC000150894060   -0.5300
     13 C13        -1.7045    2.6929   50.3544 C.ar    1  ZINC000150894060   -0.1300
     14 C14        -2.5810    2.4134   49.3048 C.ar    1  ZINC000150894060   -0.0900
     15 C15        -3.9395    2.3613   49.5400 C.ar    1  ZINC000150894060   -0.0900
     16 C16        -4.4335    2.5859   50.8128 C.ar    1  ZINC000150894060   -0.0800
     17 C17        -5.9185    2.5280   51.0621 C.3     1  ZINC000150894060    0.1700
     18 N18        -6.3425    1.1293   51.1634 N.pl3   1  ZINC000150894060   -0.3700
     19 C19        -6.9611    0.5618   52.2198 C.2     1  ZINC000150894060    0.0500
     20 C20        -7.1816   -0.7390   51.9188 C.2     1  ZINC000150894060   -0.2700
     21 C21        -6.6805   -0.9743   50.6343 C.2     1  ZINC000150894060    0.0400
     22 N22        -6.1828    0.1464   50.1781 N.2     1  ZINC000150894060   -0.2900
     23 C23        -3.5699    2.8630   51.8576 C.ar    1  ZINC000150894060   -0.1100
     24 C24        -2.2089    2.9128   51.6372 C.ar    1  ZINC000150894060   -0.0600
     25 O25         6.3215   -1.3820   44.3374 O.3     1  ZINC000150894060   -0.1700
     26 C26         6.2680   -1.8088   43.0691 C.2     1  ZINC000150894060    0.0000
     27 C27         5.1622   -1.2975   42.4846 C.2     1  ZINC000150894060   -0.2300
     28 H28         2.3843   -0.3659   43.5203 H       1  ZINC000150894060    0.0800
     29 H29         3.2443    1.1434   43.9083 H       1  ZINC000150894060    0.0900
     30 H30         3.1488    0.5817   42.2219 H       1  ZINC000150894060    0.0700
     31 H31         3.2659    0.9589   45.2208 H       1  ZINC000150894060    0.4100
     32 H32         4.0322    0.9536   48.0665 H       1  ZINC000150894060    0.0800
     33 H33         3.9419    2.5229   47.2316 H       1  ZINC000150894060    0.0800
     34 H34         1.5805    2.1555   46.7052 H       1  ZINC000150894060    0.0800
     35 H35         1.6491    0.5170   47.3970 H       1  ZINC000150894060    0.0800
     36 H36         2.2549    1.5153   49.6117 H       1  ZINC000150894060    0.0800
     37 H37         2.0745    3.1375   48.9018 H       1  ZINC000150894060    0.0800
     38 H38        -0.2737    1.5055   48.5236 H       1  ZINC000150894060    0.4000
     39 H39        -2.1969    2.2386   48.3108 H       1  ZINC000150894060    0.1300
     40 H40        -4.6188    2.1452   48.7287 H       1  ZINC000150894060    0.1300
     41 H41        -6.1513    3.0464   51.9923 H       1  ZINC000150894060    0.1100
     42 H42        -6.4445    3.0083   50.2370 H       1  ZINC000150894060    0.1000
     43 H43        -7.2314    1.0569   53.1408 H       1  ZINC000150894060    0.1700
     44 H44        -7.6594   -1.4668   52.5577 H       1  ZINC000150894060    0.1500
     45 H45        -6.7049   -1.9171   50.1080 H       1  ZINC000150894060    0.1800
     46 H46        -3.9618    3.0371   52.8488 H       1  ZINC000150894060    0.1300
     47 H47        -1.5359    3.1289   52.4537 H       1  ZINC000150894060    0.1400
     48 H48         6.9880   -2.4582   42.5932 H       1  ZINC000150894060    0.2100
     49 H49         4.8422   -1.4590   41.4658 H       1  ZINC000150894060    0.1600
@<TRIPOS>BOND
     1     1     2    1
     2     1    28    1
     3     1    29    1
     4     1    30    1
     5     2    27    1
     6     2     3    2
     7     3     4    1
     8     3    25    1
     9     4     5    2
    10     4     6   am
    11     6     7    1
    12     6    31    1
    13     7     8    1
    14     7    32    1
    15     7    33    1
    16     8     9    1
    17     8    34    1
    18     8    35    1
    19     9    10    1
    20     9    36    1
    21     9    37    1
    22    10    11   am
    23    10    38    1
    24    11    12    2
    25    11    13    1
    26    13    24   ar
    27    13    14   ar
    28    14    15   ar
    29    14    39    1
    30    15    16   ar
    31    15    40    1
    32    16    17    1
    33    16    23   ar
    34    17    18    1
    35    17    41    1
    36    17    42    1
    37    18    22    1
    38    18    19    1
    39    19    20    2
    40    19    43    1
    41    20    21    1
    42    20    44    1
    43    21    22    2
    44    21    45    1
    45    23    24   ar
    46    23    46    1
    47    24    47    1
    48    25    26    1
    49    26    27    2
    50    26    48    1
    51    27    49    1
@<TRIPOS>SUBSTRUCTURE
     1 ZINC000150894060        1 TEMP              0 ****  ****    0 ROOT


##########                                Name:     oleObject42.pdb
##########                DOCK_Rotatable_Bonds:                   9
##########                         Heavy_Atoms:                  36
##########                    Molecular_Weight:             527.493
##########                DOCK_Rotatable_Bonds:                   9
##########                       Formal_Charge:         9.99384e-05
##########                     HBond_Acceptors:                   8
##########                        HBond_Donors:                   0
##########                         Heavy_Atoms:                  36
##########                          Grid_Score:          -36.597672
##########                     Grid_vdw_energy:          -35.953220
##########                      Grid_es_energy:           -0.644451
##########           Internal_energy_repulsive:           32.396397

@<TRIPOS>MOLECULE
oleObject42.pdb
 68 71 1 0 0
SMALL
NO_CHARGES


@<TRIPOS>ATOM
      1 C          -3.3415    3.4815   50.4428 C.ar    1  UNL        -0.0435
      2 C          -3.5561    3.5395   51.8275 C.ar    1  UNL        -0.0559
      3 C          -4.8535    3.3271   52.3306 C.ar    1  UNL        -0.0272
      4 C          -5.8986    3.0618   51.4100 C.ar    1  UNL         0.0699
      5 N          -5.6774    3.0087   50.0757 N.ar    1  UNL        -0.2586
      6 C          -4.4332    3.2126   49.6043 C.ar    1  UNL         0.0272
      7 C          -7.3436    2.8168   51.8771 C.3     1  UNL         0.1101
      8 C          -8.3850    3.6350   51.0891 C.ar    1  UNL         0.0699
      9 C          -8.7222    4.9592   51.4673 C.ar    1  UNL        -0.0272
     10 C          -9.6896    5.6469   50.7105 C.ar    1  UNL        -0.0559
     11 C         -10.2852    5.0040   49.6159 C.ar    1  UNL        -0.0435
     12 C          -9.8949    3.6912   49.3140 C.ar    1  UNL         0.0272
     13 N          -8.9719    3.0251   50.0324 N.ar    1  UNL        -0.2586
     14 C          -8.0730    5.6549   52.6588 C.3     1  UNL        -0.0379
     15 N          -7.6701    1.3694   52.0059 N.am    1  UNL        -0.2902
     16 C          -8.6629    0.8884   52.8605 C.2     1  UNL         0.2180
     17 O          -9.0731   -0.2549   52.7449 O.2     1  UNL        -0.2772
     18 C          -9.4404    1.9334   53.6977 C.3     1  UNL         0.0385
     19 C          -9.4060    1.5857   55.2055 C.3     1  UNL        -0.0289
     20 C         -10.3384    0.4061   55.5550 C.3     1  UNL        -0.0010
     21 N         -11.7246    0.6608   55.1069 N.4     1  UNL        -0.3010
     22 C         -11.8432    0.9616   53.6630 C.3     1  UNL        -0.0010
     23 C         -10.9073    2.1143   53.2262 C.3     1  UNL        -0.0289
     24 C         -12.7076   -0.3302   55.5983 C.3     1  UNL         0.0222
     25 C         -13.6829    0.2246   56.6605 C.3     1  UNL         0.0661
     26 O         -13.8011   -0.7551   57.7039 O.3     1  UNL        -0.3432
     27 C         -12.6686   -1.1627   58.3649 C.ar    1  UNL         0.0937
     28 C         -12.1021   -0.3173   59.3337 C.ar    1  UNL        -0.0288
     29 C         -10.9422   -0.7127   60.0205 C.ar    1  UNL        -0.0408
     30 C         -10.3478   -1.9532   59.7348 C.ar    1  UNL         0.0422
     31 C         -10.9088   -2.7984   58.7629 C.ar    1  UNL        -0.0221
     32 C         -12.0692   -2.4049   58.0750 C.ar    1  UNL         0.0723
     33 CL        -12.7470   -3.4760   56.8628 Cl      1  UNL        -0.0814
     34 CL         -8.9020   -2.4459   60.5903 Cl      1  UNL        -0.0843
     35 C          -6.7764    0.4281   51.3015 C.3     1  UNL         0.0038
     36 C          -5.0891    3.3861   53.8360 C.3     1  UNL        -0.0379
     37 H          -2.3506    3.6402   50.0278 H       1  UNL         0.0639
     38 H          -2.7262    3.7447   52.4978 H       1  UNL         0.0627
     39 H          -4.3093    3.1577   48.5234 H       1  UNL         0.0840
     40 H          -7.3837    3.2141   52.8946 H       1  UNL         0.0643
     41 H          -9.9755    6.6636   50.9649 H       1  UNL         0.0627
     42 H         -11.0333    5.5113   49.0140 H       1  UNL         0.0639
     43 H         -10.3329    3.1558   48.4726 H       1  UNL         0.0840
     44 H          -8.3132    5.1390   53.5967 H       1  UNL         0.0280
     45 H          -8.4186    6.6914   52.7583 H       1  UNL         0.0280
     46 H          -6.9814    5.6854   52.5552 H       1  UNL         0.0280
     47 H          -8.9600    2.9085   53.5678 H       1  UNL         0.0402
     48 H          -9.7215    2.4652   55.7817 H       1  UNL         0.0288
     49 H          -8.3822    1.3535   55.5217 H       1  UNL         0.0288
     50 H         -10.3202    0.2532   56.6418 H       1  UNL         0.0431
     51 H          -9.9506   -0.5056   55.0829 H       1  UNL         0.0431
     52 H         -12.8776    1.2422   53.4265 H       1  UNL         0.0431
     53 H         -11.6065    0.0673   53.0745 H       1  UNL         0.0431
     54 H         -11.2962    3.0494   53.6496 H       1  UNL         0.0288
     55 H         -10.9399    2.2292   52.1351 H       1  UNL         0.0288
     56 H         -12.1741   -1.1876   56.0282 H       1  UNL         0.0455
     57 H         -13.2941   -0.7075   54.7507 H       1  UNL         0.0455
     58 H         -14.6651    0.4114   56.2092 H       1  UNL         0.0586
     59 H         -13.3007    1.1668   57.0720 H       1  UNL         0.0586
     60 H         -12.5627    0.6420   59.5512 H       1  UNL         0.0652
     61 H         -10.5060   -0.0588   60.7704 H       1  UNL         0.0639
     62 H         -10.4450   -3.7557   58.5425 H       1  UNL         0.0655
     63 H          -6.3822    0.8831   50.3843 H       1  UNL         0.0433
     64 H          -7.3291   -0.4791   51.0265 H       1  UNL         0.0433
     65 H          -5.9399    0.1533   51.9563 H       1  UNL         0.0433
     66 H          -4.1552    3.5626   54.3840 H       1  UNL         0.0280
     67 H          -5.5109    2.4452   54.2098 H       1  UNL         0.0280
     68 H          -5.7784    4.1983   54.0968 H       1  UNL         0.0280
@<TRIPOS>BOND
     1     1     2   ar
     2     1     6   ar
     3     1    37    1
     4     2     3   ar
     5     2    38    1
     6     3     4   ar
     7     3    36    1
     8     4     5   ar
     9     4     7    1
    10     5     6   ar
    11     6    39    1
    12     7     8    1
    13     7    15    1
    14     7    40    1
    15     8     9   ar
    16     8    13   ar
    17     9    10   ar
    18     9    14    1
    19    10    11   ar
    20    10    41    1
    21    11    12   ar
    22    11    42    1
    23    12    13   ar
    24    12    43    1
    25    14    44    1
    26    14    45    1
    27    14    46    1
    28    15    16   am
    29    15    35    1
    30    16    17    2
    31    16    18    1
    32    18    19    1
    33    18    23    1
    34    18    47    1
    35    19    20    1
    36    19    48    1
    37    19    49    1
    38    20    21    1
    39    20    50    1
    40    20    51    1
    41    21    22    1
    42    21    24    1
    43    22    23    1
    44    22    52    1
    45    22    53    1
    46    23    54    1
    47    23    55    1
    48    24    25    1
    49    24    56    1
    50    24    57    1
    51    25    26    1
    52    25    58    1
    53    25    59    1
    54    26    27    1
    55    27    28   ar
    56    27    32   ar
    57    28    29   ar
    58    28    60    1
    59    29    30   ar
    60    29    61    1
    61    30    31   ar
    62    30    34    1
    63    31    32   ar
    64    31    62    1
    65    32    33    1
    66    35    63    1
    67    35    64    1
    68    35    65    1
    69    36    66    1
    70    36    67    1
    71    36    68    1
@<TRIPOS>SUBSTRUCTURE
     1 UNL         1 TEMP              0 ****  ****    0 ROOT


##########                                Name:    ZINC000504860563
##########                DOCK_Rotatable_Bonds:                   6
##########                         Heavy_Atoms:                  25
##########                    Molecular_Weight:             370.786
##########                DOCK_Rotatable_Bonds:                   6
##########                       Formal_Charge:                0.01
##########                     HBond_Acceptors:                   9
##########                        HBond_Donors:                   0
##########                         Heavy_Atoms:                  25
##########                          Grid_Score:          -36.589981
##########                     Grid_vdw_energy:          -34.340397
##########                      Grid_es_energy:           -2.249583
##########           Internal_energy_repulsive:           14.894079

@<TRIPOS>MOLECULE
ZINC000504860563
 42 44 1 0 0
SMALL
USER_CHARGES


@<TRIPOS>ATOM
      1 O1        -10.9206   -5.0231   57.6096 O.2     1  ZINC000504860563   -0.5100
      2 C2        -11.4535   -3.9329   57.6800 C.2     1  ZINC000504860563    0.5700
      3 C3        -12.8130   -3.7380   57.1327 C.ar    1  ZINC000504860563    0.0500
      4 N4        -13.8711   -3.9128   57.9165 N.ar    1  ZINC000504860563   -0.4100
      5 C5        -15.0959   -3.7491   57.4696 C.ar    1  ZINC000504860563    0.0600
      6 C6        -15.3347   -3.3848   56.1525 C.ar    1  ZINC000504860563   -0.1000
      7 C7        -14.2657   -3.1907   55.2961 C.ar    1  ZINC000504860563   -0.1700
      8 C8        -12.9764   -3.3649   55.7941 C.ar    1  ZINC000504860563    0.1400
      9 O9        -11.8974   -3.1852   54.9920 O.3     1  ZINC000504860563   -0.2600
     10 C10       -12.1508   -2.7858   53.6435 C.3     1  ZINC000504860563   -0.0100
     11 C11       -10.8260   -2.4623   52.9499 C.3     1  ZINC000504860563    0.2800
     12 F12       -11.0711   -2.1064   51.6192 F       1  ZINC000504860563   -0.1900
     13 F13       -10.2017   -1.3983   53.6097 F       1  ZINC000504860563   -0.1900
     14 N14       -10.8073   -2.9032   58.2620 N.am    1  ZINC000504860563   -0.6000
     15 C15       -11.4432   -1.5827   58.3653 C.3     1  ZINC000504860563    0.0800
     16 C16       -11.4101   -1.1328   59.8293 C.3     1  ZINC000504860563   -0.1500
     17 C17        -9.9682   -1.1778   60.3402 C.3     1  ZINC000504860563    0.1600
     18 N18        -9.9282   -0.7166   61.7300 N.pl3   1  ZINC000504860563   -0.3600
     19 C19        -9.0370   -1.1004   62.6692 C.2     1  ZINC000504860563    0.0700
     20 C20        -9.3400   -0.4484   63.8161 C.2     1  ZINC000504860563   -0.1900
     21 Cl21       -8.4955   -0.5908   65.3261 Cl      1  ZINC000504860563   -0.0400
     22 C22       -10.4543    0.3614   63.5692 C.2     1  ZINC000504860563    0.0600
     23 N23       -10.8042    0.2051   62.3181 N.2     1  ZINC000504860563   -0.2800
     24 C24        -9.4428   -2.6132   60.2639 C.3     1  ZINC000504860563   -0.1400
     25 C25        -9.4560   -3.0814   58.8104 C.3     1  ZINC000504860563    0.1200
     26 H26       -15.9302   -3.9010   58.1384 H       1  ZINC000504860563    0.1700
     27 H27       -16.3466   -3.2541   55.7986 H       1  ZINC000504860563    0.1500
     28 H28       -14.4268   -2.9069   54.2665 H       1  ZINC000504860563    0.1500
     29 H29       -12.6506   -3.5959   53.1124 H       1  ZINC000504860563    0.1000
     30 H30       -12.7881   -1.9015   53.6402 H       1  ZINC000504860563    0.1000
     31 H31       -10.1778   -3.3380   52.9782 H       1  ZINC000504860563    0.1300
     32 H32       -10.8990   -0.8660   57.7504 H       1  ZINC000504860563    0.0700
     33 H33       -12.4770   -1.6475   58.0262 H       1  ZINC000504860563    0.1600
     34 H34       -11.7915   -0.1146   59.9056 H       1  ZINC000504860563    0.0900
     35 H35       -12.0295   -1.7998   60.4290 H       1  ZINC000504860563    0.0700
     36 H36        -9.3444   -0.5298   59.7244 H       1  ZINC000504860563    0.1100
     37 H37        -8.2279   -1.8022   62.5303 H       1  ZINC000504860563    0.1800
     38 H38       -10.9396    1.0066   64.2866 H       1  ZINC000504860563    0.1900
     39 H39        -8.4240   -2.6486   60.6497 H       1  ZINC000504860563    0.0900
     40 H40       -10.0807   -3.2662   60.8595 H       1  ZINC000504860563    0.0800
     41 H41        -9.1769   -4.1340   58.7630 H       1  ZINC000504860563    0.1000
     42 H42        -8.7507   -2.4877   58.2287 H       1  ZINC000504860563    0.0800
@<TRIPOS>BOND
     1     1     2    2
     2     2     3    1
     3     2    14   am
     4     3     8   ar
     5     3     4   ar
     6     4     5   ar
     7     5     6   ar
     8     5    26    1
     9     6     7   ar
    10     6    27    1
    11     7     8   ar
    12     7    28    1
    13     8     9    1
    14     9    10    1
    15    10    11    1
    16    10    29    1
    17    10    30    1
    18    11    12    1
    19    11    13    1
    20    11    31    1
    21    14    25    1
    22    14    15    1
    23    15    16    1
    24    15    32    1
    25    15    33    1
    26    16    17    1
    27    16    34    1
    28    16    35    1
    29    17    18    1
    30    17    24    1
    31    17    36    1
    32    18    23    1
    33    18    19    1
    34    19    20    2
    35    19    37    1
    36    20    21    1
    37    20    22    1
    38    22    23    2
    39    22    38    1
    40    24    25    1
    41    24    39    1
    42    24    40    1
    43    25    41    1
    44    25    42    1
@<TRIPOS>SUBSTRUCTURE
     1 ZINC000504860563        1 TEMP              0 ****  ****    0 ROOT


##########                                Name:    ZINC000186105981
##########                DOCK_Rotatable_Bonds:                   6
##########                         Heavy_Atoms:                  26
##########                    Molecular_Weight:             396.873
##########                DOCK_Rotatable_Bonds:                   6
##########                       Formal_Charge:          -0.0400003
##########                     HBond_Acceptors:                   9
##########                        HBond_Donors:                   1
##########                         Heavy_Atoms:                  26
##########                          Grid_Score:          -36.582787
##########                     Grid_vdw_energy:          -34.068729
##########                      Grid_es_energy:           -2.514057
##########           Internal_energy_repulsive:           18.509504

@<TRIPOS>MOLECULE
ZINC000186105981
 44 46 1 0 0
SMALL
USER_CHARGES


@<TRIPOS>ATOM
      1 C1         -3.8471    3.2776   50.3841 C.3     1  ZINC000186105981   -0.1400
      2 C2         -4.8071    2.0863   50.3745 C.3     1  ZINC000186105981   -0.1100
      3 C3         -4.0444    0.8199   49.9803 C.3     1  ZINC000186105981   -0.1600
      4 C4         -5.4094    1.9055   51.7692 C.3     1  ZINC000186105981    0.1600
      5 H5         -4.6821    1.4184   52.4187 H       1  ZINC000186105981    0.1200
      6 C6         -6.6486    1.0531   51.6746 C.2     1  ZINC000186105981    0.4900
      7 O7         -7.0306    0.6562   50.5941 O.2     1  ZINC000186105981   -0.4300
      8 N8         -7.3324    0.7319   52.7906 N.am    1  ZINC000186105981   -0.6300
      9 C9         -8.4752   -0.0541   52.7034 C.2     1  ZINC000186105981    0.2400
     10 N10        -8.5921   -1.1665   52.0357 N.2     1  ZINC000186105981   -0.2600
     11 N11        -9.7073   -1.7544   52.0658 N.2     1  ZINC000186105981   -0.2000
     12 C12       -10.6623   -1.2059   52.7633 C.2     1  ZINC000186105981    0.0300
     13 C13       -12.0337   -1.7324   52.9268 C.ar    1  ZINC000186105981   -0.0500
     14 C14       -13.0537   -1.3133   52.0686 C.ar    1  ZINC000186105981    0.1300
     15 F15       -12.7895   -0.4246   51.0858 F       1  ZINC000186105981   -0.1200
     16 C16       -14.3335   -1.8106   52.2277 C.ar    1  ZINC000186105981   -0.1400
     17 C17       -14.6050   -2.7207   53.2330 C.ar    1  ZINC000186105981   -0.0600
     18 C18       -13.5996   -3.1395   54.0864 C.ar    1  ZINC000186105981   -0.1200
     19 C19       -12.3152   -2.6559   53.9362 C.ar    1  ZINC000186105981    0.0200
     20 Cl20      -11.0559   -3.1837   55.0082 Cl      1  ZINC000186105981   -0.0100
     21 S21       -10.0238    0.2731   53.4838 S.3     1  ZINC000186105981    0.1200
     22 N22        -5.7591    3.2156   52.3238 N.am    1  ZINC000186105981   -0.6100
     23 C23        -5.0561    3.8560   53.4417 C.3     1  ZINC000186105981    0.1000
     24 C24        -5.4640    5.3450   53.3862 C.3     1  ZINC000186105981   -0.1300
     25 C25        -6.8321    5.2706   52.6696 C.3     1  ZINC000186105981   -0.1600
     26 C26        -6.7613    3.9882   51.8704 C.2     1  ZINC000186105981    0.5200
     27 O27        -7.5052    3.6962   50.9582 O.2     1  ZINC000186105981   -0.5000
     28 H28        -3.4180    3.4064   49.3904 H       1  ZINC000186105981    0.0600
     29 H29        -4.3904    4.1798   50.6650 H       1  ZINC000186105981    0.0600
     30 H30        -3.0490    3.0953   51.1037 H       1  ZINC000186105981    0.0600
     31 H31        -5.6052    2.2687   49.6549 H       1  ZINC000186105981    0.0900
     32 H32        -3.3079    0.5852   50.7487 H       1  ZINC000186105981    0.0600
     33 H33        -4.7442   -0.0100   49.8821 H       1  ZINC000186105981    0.0600
     34 H34        -3.5377    0.9822   49.0289 H       1  ZINC000186105981    0.0700
     35 H35        -7.0269    1.0493   53.6549 H       1  ZINC000186105981    0.4200
     36 H36       -15.1232   -1.4876   51.5656 H       1  ZINC000186105981    0.1500
     37 H37       -15.6067   -3.1061   53.3527 H       1  ZINC000186105981    0.1500
     38 H38       -13.8193   -3.8502   54.8695 H       1  ZINC000186105981    0.1500
     39 H39        -5.3697    3.4140   54.3873 H       1  ZINC000186105981    0.0700
     40 H40        -3.9780    3.7553   53.3165 H       1  ZINC000186105981    0.0800
     41 H41        -5.5709    5.7578   54.3893 H       1  ZINC000186105981    0.0900
     42 H42        -4.7485    5.9238   52.8020 H       1  ZINC000186105981    0.0800
     43 H43        -7.6422    5.2268   53.3976 H       1  ZINC000186105981    0.1100
     44 H44        -6.9614    6.1246   52.0046 H       1  ZINC000186105981    0.1000
@<TRIPOS>BOND
     1     1     2    1
     2     1    28    1
     3     1    29    1
     4     1    30    1
     5     2     3    1
     6     2     4    1
     7     2    31    1
     8     3    32    1
     9     3    33    1
    10     3    34    1
    11     4     5    1
    12     4     6    1
    13     4    22    1
    14     6     7    2
    15     6     8   am
    16     8     9    1
    17     8    35    1
    18     9    21    1
    19     9    10    2
    20    10    11    1
    21    11    12    2
    22    12    13    1
    23    12    21    1
    24    13    19   ar
    25    13    14   ar
    26    14    15    1
    27    14    16   ar
    28    16    17   ar
    29    16    36    1
    30    17    18   ar
    31    17    37    1
    32    18    19   ar
    33    18    38    1
    34    19    20    1
    35    22    26   am
    36    22    23    1
    37    23    24    1
    38    23    39    1
    39    23    40    1
    40    24    25    1
    41    24    41    1
    42    24    42    1
    43    25    26    1
    44    25    43    1
    45    25    44    1
    46    26    27    2
@<TRIPOS>SUBSTRUCTURE
     1 ZINC000186105981        1 TEMP              0 ****  ****    0 ROOT


##########                                Name:    ZINC000753658424
##########                DOCK_Rotatable_Bonds:                   8
##########                         Heavy_Atoms:                  24
##########                    Molecular_Weight:             332.399
##########                DOCK_Rotatable_Bonds:                   8
##########                       Formal_Charge:        -9.16421e-07
##########                     HBond_Acceptors:                   6
##########                        HBond_Donors:                   3
##########                         Heavy_Atoms:                  24
##########                          Grid_Score:          -36.574387
##########                     Grid_vdw_energy:          -34.593781
##########                      Grid_es_energy:           -1.980606
##########           Internal_energy_repulsive:           23.224119

@<TRIPOS>MOLECULE
ZINC000753658424
 48 49 1 0 0
SMALL
USER_CHARGES


@<TRIPOS>ATOM
      1 C1         -0.0480    5.1792   50.9882 C.3     1  ZINC000753658424   -0.2000
      2 C2         -0.4665    3.8991   51.6644 C.2     1  ZINC000753658424    0.4400
      3 O3          0.1061    3.5277   52.6675 O.2     1  ZINC000753658424   -0.4500
      4 C4         -1.5654    3.1024   51.1102 C.2     1  ZINC000753658424   -0.2500
      5 C5         -1.4700    2.1509   50.1067 C.2     1  ZINC000753658424    0.1000
      6 C6         -0.2074    1.7506   49.3878 C.3     1  ZINC000753658424   -0.1000
      7 N7         -2.6929    1.6470   49.8850 N.pl3   1  ZINC000753658424   -0.5300
      8 C8         -3.5962    2.2545   50.7306 C.2     1  ZINC000753658424   -0.0600
      9 C9         -5.0365    1.9750   50.7931 C.2     1  ZINC000753658424    0.5900
     10 O10        -5.7686    2.3511   49.8971 O.2     1  ZINC000753658424   -0.5200
     11 N11        -5.5473    1.3017   51.8430 N.am    1  ZINC000753658424   -0.7300
     12 C12        -6.9844    1.0243   51.9062 C.3     1  ZINC000753658424    0.0900
     13 C13        -7.2079   -0.4847   52.0230 C.3     1  ZINC000753658424    0.1900
     14 H14        -6.5848   -0.8835   52.8235 H       1  ZINC000753658424    0.1300
     15 O15        -6.8587   -1.1148   50.7888 O.3     1  ZINC000753658424   -0.5500
     16 C16        -8.6576   -0.7554   52.3326 C.2     1  ZINC000753658424   -0.0600
     17 C17        -9.5105    0.1039   52.9187 C.2     1  ZINC000753658424   -0.1800
     18 C18       -10.7566   -0.5573   53.0148 C.2     1  ZINC000753658424   -0.2100
     19 C19       -10.5906   -1.7810   52.4816 C.2     1  ZINC000753658424    0.0000
     20 C20       -11.6532   -2.8432   52.3650 C.3     1  ZINC000753658424   -0.0800
     21 O21        -9.3188   -1.8934   52.0648 O.3     1  ZINC000753658424   -0.1700
     22 C22        -2.9247    3.1541   51.5026 C.2     1  ZINC000753658424   -0.0100
     23 C23        -3.5178    4.0424   52.5657 C.3     1  ZINC000753658424   -0.0500
     24 C24        -2.5522    4.1363   53.7488 C.3     1  ZINC000753658424   -0.1500
     25 C25        -3.7551    5.4395   51.9889 C.3     1  ZINC000753658424   -0.1500
     26 H26         0.7232    5.6690   51.5828 H       1  ZINC000753658424    0.0800
     27 H27         0.3455    4.9546   49.9969 H       1  ZINC000753658424    0.1000
     28 H28        -0.9100    5.8399   50.8959 H       1  ZINC000753658424    0.0900
     29 H29         0.2221    0.8724   49.8696 H       1  ZINC000753658424    0.0900
     30 H30        -0.4393    1.5180   48.3484 H       1  ZINC000753658424    0.0800
     31 H31         0.5080    2.5721   49.4253 H       1  ZINC000753658424    0.0900
     32 H32        -2.9079    0.9625   49.2322 H       1  ZINC000753658424    0.4200
     33 H33        -4.9634    1.0008   52.5568 H       1  ZINC000753658424    0.4000
     34 H34        -7.4128    1.5234   52.7754 H       1  ZINC000753658424    0.0900
     35 H35        -7.4660    1.3940   51.0010 H       1  ZINC000753658424    0.0800
     36 H36        -7.4852   -0.9486   50.0712 H       1  ZINC000753658424    0.3900
     37 H37        -9.2864    1.1062   53.2525 H       1  ZINC000753658424    0.1500
     38 H38       -11.6669   -0.1568   53.4358 H       1  ZINC000753658424    0.1500
     39 H39       -12.1743   -2.7330   51.4139 H       1  ZINC000753658424    0.0800
     40 H40       -11.1893   -3.8283   52.4131 H       1  ZINC000753658424    0.0800
     41 H41       -12.3650   -2.7364   53.1836 H       1  ZINC000753658424    0.0900
     42 H42        -4.4655    3.6226   52.9026 H       1  ZINC000753658424    0.1100
     43 H43        -1.6501    4.6646   53.4404 H       1  ZINC000753658424    0.0500
     44 H44        -3.0295    4.6783   54.5652 H       1  ZINC000753658424    0.0600
     45 H45        -2.2892    3.1328   54.0836 H       1  ZINC000753658424    0.0600
     46 H46        -4.5031    5.3839   51.1980 H       1  ZINC000753658424    0.0500
     47 H47        -4.1092    6.1030   52.7779 H       1  ZINC000753658424    0.0600
     48 H48        -2.8220    5.8270   51.5799 H       1  ZINC000753658424    0.0600
@<TRIPOS>BOND
     1     1     2    1
     2     1    26    1
     3     1    27    1
     4     1    28    1
     5     2     3    2
     6     2     4    1
     7     4    22    1
     8     4     5    2
     9     5     6    1
    10     5     7    1
    11     6    29    1
    12     6    30    1
    13     6    31    1
    14     7     8    1
    15     7    32    1
    16     8     9    1
    17     8    22    2
    18     9    10    2
    19     9    11   am
    20    11    12    1
    21    11    33    1
    22    12    13    1
    23    12    34    1
    24    12    35    1
    25    13    14    1
    26    13    15    1
    27    13    16    1
    28    15    36    1
    29    16    21    1
    30    16    17    2
    31    17    18    1
    32    17    37    1
    33    18    19    2
    34    18    38    1
    35    19    20    1
    36    19    21    1
    37    20    39    1
    38    20    40    1
    39    20    41    1
    40    22    23    1
    41    23    24    1
    42    23    25    1
    43    23    42    1
    44    24    43    1
    45    24    44    1
    46    24    45    1
    47    25    46    1
    48    25    47    1
    49    25    48    1
@<TRIPOS>SUBSTRUCTURE
     1 ZINC000753658424        1 TEMP              0 ****  ****    0 ROOT


##########                                Name:    ZINC000489403631
##########                DOCK_Rotatable_Bonds:                   7
##########                         Heavy_Atoms:                  28
##########                    Molecular_Weight:             381.391
##########                DOCK_Rotatable_Bonds:                   7
##########                       Formal_Charge:          -0.0300003
##########                     HBond_Acceptors:                   9
##########                        HBond_Donors:                   1
##########                         Heavy_Atoms:                  28
##########                          Grid_Score:          -36.549828
##########                     Grid_vdw_energy:          -34.772427
##########                      Grid_es_energy:           -1.777400
##########           Internal_energy_repulsive:           10.958525

@<TRIPOS>MOLECULE
ZINC000489403631
 47 49 1 0 0
SMALL
USER_CHARGES


@<TRIPOS>ATOM
      1 C1         -9.4268    3.8962   51.0545 C.3     1  ZINC000489403631   -0.1100
      2 C2         -8.7955    3.3234   52.2972 C.ar    1  ZINC000489403631   -0.0800
      3 C3         -9.5844    2.9815   53.3773 C.ar    1  ZINC000489403631   -0.0900
      4 C4         -9.0025    2.4536   54.5225 C.ar    1  ZINC000489403631    0.1200
      5 N5         -9.8026    2.1061   55.6186 N.am    1  ZINC000489403631   -0.6600
      6 C6        -10.3532    0.8780   55.6886 C.2     1  ZINC000489403631    0.5100
      7 O7        -10.1561    0.0735   54.8025 O.2     1  ZINC000489403631   -0.4600
      8 C8        -11.2139    0.5042   56.8679 C.3     1  ZINC000489403631    0.1700
      9 C9        -10.9098    1.4413   58.0386 C.3     1  ZINC000489403631   -0.1700
     10 C10       -12.6892    0.6311   56.4830 C.3     1  ZINC000489403631   -0.1700
     11 N11       -10.9291   -0.8778   57.2618 N.pl3   1  ZINC000489403631   -0.3400
     12 C12       -10.0749   -1.2670   58.2312 C.2     1  ZINC000489403631    0.1500
     13 C13       -10.0975   -2.6190   58.2825 C.2     1  ZINC000489403631   -0.1900
     14 N14        -9.3107   -3.4688   59.2042 N.pl3   1  ZINC000489403631    0.0700
     15 O15        -8.5711   -2.9552   60.0245 O.2     1  ZINC000489403631   -0.1700
     16 O16        -9.4027   -4.6818   59.1424 O.2     1  ZINC000489403631   -0.1600
     17 C17       -10.9963   -3.0716   57.3110 C.2     1  ZINC000489403631    0.1000
     18 N18       -11.4999   -2.0284   56.7027 N.2     1  ZINC000489403631   -0.2200
     19 C19        -7.6275    2.2700   54.5803 C.ar    1  ZINC000489403631   -0.1100
     20 C20        -6.8394    2.6123   53.4992 C.ar    1  ZINC000489403631   -0.1700
     21 C21        -7.4219    3.1343   52.3535 C.ar    1  ZINC000489403631    0.1000
     22 O22        -6.6455    3.4712   51.2894 O.3     1  ZINC000489403631   -0.2500
     23 C23        -5.8339    2.5178   50.7657 C.ar    1  ZINC000489403631    0.1400
     24 C24        -6.2805    1.2079   50.6071 C.ar    1  ZINC000489403631   -0.2000
     25 C25        -5.4248    0.2678   50.0709 C.ar    1  ZINC000489403631    0.1200
     26 N26        -4.1986    0.5968   49.7107 N.ar    1  ZINC000489403631   -0.4900
     27 C27        -3.7392    1.8267   49.8451 C.ar    1  ZINC000489403631    0.1200
     28 C28        -4.5349    2.8253   50.3677 C.ar    1  ZINC000489403631   -0.1800
     29 H29        -9.6940    3.0859   50.3762 H       1  ZINC000489403631    0.0700
     30 H30       -10.3235    4.4532   51.3262 H       1  ZINC000489403631    0.0700
     31 H31        -8.7196    4.5638   50.5623 H       1  ZINC000489403631    0.0700
     32 H32       -10.6539    3.1250   53.3319 H       1  ZINC000489403631    0.1500
     33 H33        -9.9602    2.7495   56.3272 H       1  ZINC000489403631    0.4100
     34 H34       -11.1217    2.4695   57.7455 H       1  ZINC000489403631    0.1000
     35 H35       -11.5324    1.1709   58.8915 H       1  ZINC000489403631    0.0900
     36 H36        -9.8587    1.3508   58.3127 H       1  ZINC000489403631    0.0800
     37 H37       -12.9059   -0.0364   55.6490 H       1  ZINC000489403631    0.0800
     38 H38       -13.3118    0.3608   57.3359 H       1  ZINC000489403631    0.0900
     39 H39       -12.9011    1.6594   56.1899 H       1  ZINC000489403631    0.0900
     40 H40        -9.4795   -0.6161   58.8543 H       1  ZINC000489403631    0.2000
     41 H41       -11.2368   -4.1035   57.1025 H       1  ZINC000489403631    0.2100
     42 H42        -7.1744    1.8598   55.4707 H       1  ZINC000489403631    0.1300
     43 H43        -5.7698    2.4695   53.5440 H       1  ZINC000489403631    0.1300
     44 H44        -7.2826    0.9320   50.9003 H       1  ZINC000489403631    0.1400
     45 H45        -5.7626   -0.7502   49.9447 H       1  ZINC000489403631    0.1600
     46 H46        -2.7292    2.0551   49.5384 H       1  ZINC000489403631    0.1700
     47 H47        -4.1530    3.8299   50.4748 H       1  ZINC000489403631    0.1500
@<TRIPOS>BOND
     1     1     2    1
     2     1    29    1
     3     1    30    1
     4     1    31    1
     5     2    21   ar
     6     2     3   ar
     7     3     4   ar
     8     3    32    1
     9     4     5    1
    10     4    19   ar
    11     5     6   am
    12     5    33    1
    13     6     7    2
    14     6     8    1
    15     8     9    1
    16     8    10    1
    17     8    11    1
    18     9    34    1
    19     9    35    1
    20     9    36    1
    21    10    37    1
    22    10    38    1
    23    10    39    1
    24    11    18    1
    25    11    12    1
    26    12    13    2
    27    12    40    1
    28    13    14    1
    29    13    17    1
    30    14    15    2
    31    14    16    2
    32    17    18    2
    33    17    41    1
    34    19    20   ar
    35    19    42    1
    36    20    21   ar
    37    20    43    1
    38    21    22    1
    39    22    23    1
    40    23    28   ar
    41    23    24   ar
    42    24    25   ar
    43    24    44    1
    44    25    26   ar
    45    25    45    1
    46    26    27   ar
    47    27    28   ar
    48    27    46    1
    49    28    47    1
@<TRIPOS>SUBSTRUCTURE
     1 ZINC000489403631        1 TEMP              0 ****  ****    0 ROOT


##########                                Name:    ZINC000000992968
##########                DOCK_Rotatable_Bonds:                   8
##########                         Heavy_Atoms:                  27
##########                    Molecular_Weight:             384.772
##########                DOCK_Rotatable_Bonds:                   8
##########                       Formal_Charge:           0.0199999
##########                     HBond_Acceptors:                   7
##########                        HBond_Donors:                   0
##########                         Heavy_Atoms:                  27
##########                          Grid_Score:          -36.509338
##########                     Grid_vdw_energy:          -35.191708
##########                      Grid_es_energy:           -1.317630
##########           Internal_energy_repulsive:           13.737362

@<TRIPOS>MOLECULE
ZINC000000992968
 40 42 1 0 0
SMALL
USER_CHARGES


@<TRIPOS>ATOM
      1 O1         -4.6640    1.9126   49.3949 O.2     1  ZINC000000992968   -0.4600
      2 C2         -3.8501    2.1902   50.2551 C.2     1  ZINC000000992968    0.5600
      3 O3         -4.2498    2.3595   51.5328 O.3     1  ZINC000000992968   -0.2900
      4 C4         -5.4463    1.8357   51.9007 C.ar    1  ZINC000000992968    0.1200
      5 C5         -6.3626    2.6199   52.5931 C.ar    1  ZINC000000992968   -0.1300
      6 C6         -7.5772    2.0934   52.9688 C.ar    1  ZINC000000992968   -0.0400
      7 C7         -7.8900    0.7657   52.6525 C.ar    1  ZINC000000992968   -0.1600
      8 C8         -9.1853    0.1988   53.0506 C.2     1  ZINC000000992968    0.4000
      9 O9         -9.9606    0.8604   53.7081 O.2     1  ZINC000000992968   -0.4200
     10 C10        -9.5509   -1.2051   52.6423 C.3     1  ZINC000000992968    0.0200
     11 O11       -10.2858   -1.8461   53.7180 O.3     1  ZINC000000992968   -0.3300
     12 C12       -11.0775   -2.8839   53.3843 C.2     1  ZINC000000992968    0.5100
     13 O13       -11.0751   -3.3082   52.2459 O.2     1  ZINC000000992968   -0.5000
     14 C14       -11.9480   -3.5057   54.4021 C.ar    1  ZINC000000992968   -0.1300
     15 C15       -11.5959   -3.4530   55.7527 C.ar    1  ZINC000000992968   -0.0500
     16 C16       -12.4132   -4.0351   56.6983 C.ar    1  ZINC000000992968   -0.1200
     17 C17       -13.5812   -4.6715   56.3113 C.ar    1  ZINC000000992968    0.0000
     18 Cl18      -14.6046   -5.4024   57.5079 Cl      1  ZINC000000992968   -0.0500
     19 C19       -13.9361   -4.7266   54.9734 C.ar    1  ZINC000000992968   -0.1200
     20 C20       -13.1298   -4.1437   54.0187 C.ar    1  ZINC000000992968   -0.0400
     21 C21        -6.9641   -0.0194   51.9548 C.ar    1  ZINC000000992968   -0.0600
     22 C22        -5.7544    0.5183   51.5790 C.ar    1  ZINC000000992968   -0.1200
     23 C23        -2.4354    2.3347   49.9052 C.2     1  ZINC000000992968   -0.0700
     24 C24        -1.4112    2.5655   50.7800 C.2     1  ZINC000000992968   -0.0900
     25 C25        -0.2361    2.6327   50.0163 C.2     1  ZINC000000992968   -0.2300
     26 C26        -0.5889    2.4425   48.7253 C.2     1  ZINC000000992968    0.0200
     27 O27        -1.9137    2.2576   48.6631 O.3     1  ZINC000000992968   -0.1500
     28 H28        -6.1204    3.6438   52.8367 H       1  ZINC000000992968    0.1400
     29 H29        -8.2879    2.7030   53.5071 H       1  ZINC000000992968    0.1500
     30 H30       -10.1716   -1.1730   51.7469 H       1  ZINC000000992968    0.1100
     31 H31        -8.6429   -1.7712   52.4349 H       1  ZINC000000992968    0.1100
     32 H32       -10.6852   -2.9578   56.0555 H       1  ZINC000000992968    0.1500
     33 H33       -12.1421   -3.9951   57.7429 H       1  ZINC000000992968    0.1500
     34 H34       -14.8481   -5.2239   54.6779 H       1  ZINC000000992968    0.1500
     35 H35       -13.4078   -4.1871   52.9761 H       1  ZINC000000992968    0.1500
     36 H36        -7.2005   -1.0441   51.7086 H       1  ZINC000000992968    0.1400
     37 H37        -5.0396   -0.0863   51.0406 H       1  ZINC000000992968    0.1400
     38 H38        -1.4908    2.6751   51.8514 H       1  ZINC000000992968    0.1700
     39 H39         0.7626    2.8041   50.3897 H       1  ZINC000000992968    0.1700
     40 H40         0.0870    2.4367   47.8830 H       1  ZINC000000992968    0.2200
@<TRIPOS>BOND
     1     1     2    2
     2     2     3    1
     3     2    23    1
     4     3     4    1
     5     4    22   ar
     6     4     5   ar
     7     5     6   ar
     8     5    28    1
     9     6     7   ar
    10     6    29    1
    11     7     8    1
    12     7    21   ar
    13     8     9    2
    14     8    10    1
    15    10    11    1
    16    10    30    1
    17    10    31    1
    18    11    12    1
    19    12    13    2
    20    12    14    1
    21    14    20   ar
    22    14    15   ar
    23    15    16   ar
    24    15    32    1
    25    16    17   ar
    26    16    33    1
    27    17    18    1
    28    17    19   ar
    29    19    20   ar
    30    19    34    1
    31    20    35    1
    32    21    22   ar
    33    21    36    1
    34    22    37    1
    35    23    27    1
    36    23    24    2
    37    24    25    1
    38    24    38    1
    39    25    26    2
    40    25    39    1
    41    26    27    1
    42    26    40    1
@<TRIPOS>SUBSTRUCTURE
     1 ZINC000000992968        1 TEMP              0 ****  ****    0 ROOT


##########                                Name:    ZINC000027473870
##########                DOCK_Rotatable_Bonds:                  10
##########                         Heavy_Atoms:                  31
##########                    Molecular_Weight:             422.502
##########                DOCK_Rotatable_Bonds:                  10
##########                       Formal_Charge:        -7.45058e-08
##########                     HBond_Acceptors:                   7
##########                        HBond_Donors:                   1
##########                         Heavy_Atoms:                  31
##########                          Grid_Score:          -36.476990
##########                     Grid_vdw_energy:          -35.679310
##########                      Grid_es_energy:           -0.797681
##########           Internal_energy_repulsive:           23.651819

@<TRIPOS>MOLECULE
ZINC000027473870
 58 60 1 0 0
SMALL
USER_CHARGES


@<TRIPOS>ATOM
      1 C1         -7.8448    3.5101   51.2973 C.3     1  ZINC000027473870   -0.1400
      2 C2         -6.9470    2.7048   52.2387 C.3     1  ZINC000027473870   -0.0800
      3 C3         -7.2341    1.2349   52.0715 C.2     1  ZINC000027473870    0.1700
      4 C4         -6.5670    0.3615   51.2356 C.2     1  ZINC000027473870   -0.2900
      5 C5         -5.4426    0.6924   50.3417 C.2     1  ZINC000027473870    0.6000
      6 O6         -4.6918   -0.1842   49.9589 O.2     1  ZINC000027473870   -0.5400
      7 N7         -5.2465    1.9666   49.9486 N.am    1  ZINC000027473870   -0.7200
      8 C8         -4.1300    2.2952   49.0588 C.3     1  ZINC000027473870    0.1600
      9 C9         -2.9665    2.7944   49.8762 C.ar    1  ZINC000027473870   -0.0900
     10 C10        -1.7565    2.1249   49.8326 C.ar    1  ZINC000027473870   -0.1100
     11 C11        -0.6875    2.5763   50.5787 C.ar    1  ZINC000027473870   -0.1100
     12 C12        -0.8287    3.7114   51.3786 C.ar    1  ZINC000027473870   -0.1200
     13 C13         0.3128    4.2013   52.1806 C.2     1  ZINC000027473870    0.5600
     14 O14         0.4364    3.8521   53.3382 O.2     1  ZINC000027473870   -0.5300
     15 N15         1.2162    5.0349   51.6279 N.am    1  ZINC000027473870   -0.6100
     16 C16         1.0671    5.4557   50.2327 C.3     1  ZINC000027473870    0.1100
     17 C17         1.9327    4.5674   49.3369 C.3     1  ZINC000027473870   -0.1700
     18 C18         2.3472    5.5202   52.4226 C.3     1  ZINC000027473870    0.0900
     19 C19         3.5261    4.5563   52.2737 C.3     1  ZINC000027473870   -0.1800
     20 C20        -2.0519    4.3825   51.4177 C.ar    1  ZINC000027473870   -0.0700
     21 C21        -3.1114    3.9235   50.6626 C.ar    1  ZINC000027473870   -0.1000
     22 C22        -7.1638   -0.9093   51.3975 C.2     1  ZINC000027473870    0.0900
     23 N23        -8.1238   -0.7967   52.2740 N.2     1  ZINC000027473870   -0.2800
     24 N24        -8.1835    0.5305   52.7134 N.pl3   1  ZINC000027473870   -0.3100
     25 C25        -9.0867    1.0420   53.6562 C.ar    1  ZINC000027473870    0.1300
     26 C26        -8.7529    1.0528   55.0038 C.ar    1  ZINC000027473870   -0.0900
     27 C27        -9.6435    1.5573   55.9309 C.ar    1  ZINC000027473870   -0.1300
     28 C28       -10.8689    2.0523   55.5170 C.ar    1  ZINC000027473870    0.1100
     29 F29       -11.7388    2.5458   56.4252 F       1  ZINC000027473870   -0.1300
     30 C30       -11.2036    2.0423   54.1731 C.ar    1  ZINC000027473870   -0.1400
     31 C31       -10.3135    1.5433   53.2426 C.ar    1  ZINC000027473870   -0.0700
     32 H32        -7.7006    4.5749   51.4801 H       1  ZINC000027473870    0.0700
     33 H33        -7.5860    3.2806   50.2637 H       1  ZINC000027473870    0.0700
     34 H34        -8.8875    3.2484   51.4775 H       1  ZINC000027473870    0.0500
     35 H35        -5.9017    2.9003   51.9997 H       1  ZINC000027473870    0.1200
     36 H36        -7.1451    2.9987   53.2695 H       1  ZINC000027473870    0.0800
     37 H37        -5.8447    2.6662   50.2549 H       1  ZINC000027473870    0.4000
     38 H38        -3.8307    1.4041   48.5071 H       1  ZINC000027473870    0.0800
     39 H39        -4.4403    3.0697   48.3575 H       1  ZINC000027473870    0.0800
     40 H40        -1.6486    1.2467   49.2133 H       1  ZINC000027473870    0.1300
     41 H41         0.2562    2.0524   50.5444 H       1  ZINC000027473870    0.1500
     42 H42         0.0225    5.3637   49.9350 H       1  ZINC000027473870    0.0800
     43 H43         1.3840    6.4936   50.1304 H       1  ZINC000027473870    0.0800
     44 H44         1.8218    4.8805   48.2987 H       1  ZINC000027473870    0.0700
     45 H45         2.9773    4.6594   49.6344 H       1  ZINC000027473870    0.0600
     46 H46         1.6158    3.5295   49.4392 H       1  ZINC000027473870    0.0600
     47 H47         2.6402    6.5095   52.0712 H       1  ZINC000027473870    0.0800
     48 H48         2.0560    5.5787   53.4714 H       1  ZINC000027473870    0.0900
     49 H49         4.2654    4.7643   53.0471 H       1  ZINC000027473870    0.0700
     50 H50         3.1719    3.5306   52.3760 H       1  ZINC000027473870    0.0700
     51 H51         3.9808    4.6874   51.2917 H       1  ZINC000027473870    0.0600
     52 H52        -2.1677    5.2612   52.0349 H       1  ZINC000027473870    0.1300
     53 H53        -4.0584    4.4419   50.6917 H       1  ZINC000027473870    0.1300
     54 H54        -6.8759   -1.8153   50.8850 H       1  ZINC000027473870    0.1900
     55 H55        -7.7975    0.6666   55.3270 H       1  ZINC000027473870    0.1500
     56 H56        -9.3843    1.5656   56.9793 H       1  ZINC000027473870    0.1500
     57 H57       -12.1599    2.4284   53.8524 H       1  ZINC000027473870    0.1500
     58 H58       -10.5747    1.5361   52.1947 H       1  ZINC000027473870    0.1400
@<TRIPOS>BOND
     1     1     2    1
     2     1    32    1
     3     1    33    1
     4     1    34    1
     5     2     3    1
     6     2    35    1
     7     2    36    1
     8     3    24    1
     9     3     4    2
    10     4     5    1
    11     4    22    1
    12     5     6    2
    13     5     7   am
    14     7     8    1
    15     7    37    1
    16     8     9    1
    17     8    38    1
    18     8    39    1
    19     9    21   ar
    20     9    10   ar
    21    10    11   ar
    22    10    40    1
    23    11    12   ar
    24    11    41    1
    25    12    13    1
    26    12    20   ar
    27    13    14    2
    28    13    15   am
    29    15    16    1
    30    15    18    1
    31    16    17    1
    32    16    42    1
    33    16    43    1
    34    17    44    1
    35    17    45    1
    36    17    46    1
    37    18    19    1
    38    18    47    1
    39    18    48    1
    40    19    49    1
    41    19    50    1
    42    19    51    1
    43    20    21   ar
    44    20    52    1
    45    21    53    1
    46    22    23    2
    47    22    54    1
    48    23    24    1
    49    24    25    1
    50    25    31   ar
    51    25    26   ar
    52    26    27   ar
    53    26    55    1
    54    27    28   ar
    55    27    56    1
    56    28    29    1
    57    28    30   ar
    58    30    31   ar
    59    30    57    1
    60    31    58    1
@<TRIPOS>SUBSTRUCTURE
     1 ZINC000027473870        1 TEMP              0 ****  ****    0 ROOT


##########                                Name:    ZINC001191386213
##########                DOCK_Rotatable_Bonds:                   6
##########                         Heavy_Atoms:                  29
##########                    Molecular_Weight:             392.433
##########                DOCK_Rotatable_Bonds:                   6
##########                       Formal_Charge:               -0.02
##########                     HBond_Acceptors:                   7
##########                        HBond_Donors:                   2
##########                         Heavy_Atoms:                  29
##########                          Grid_Score:          -36.467113
##########                     Grid_vdw_energy:          -36.731266
##########                      Grid_es_energy:            0.264153
##########           Internal_energy_repulsive:          177.211304

@<TRIPOS>MOLECULE
ZINC001191386213
 50 53 1 0 0
SMALL
USER_CHARGES


@<TRIPOS>ATOM
      1 C1        -16.2368   -2.0392   57.1094 C.3     1  ZINC001191386213   -0.1700
      2 C2        -15.2370   -2.5566   56.1075 C.2     1  ZINC001191386213    0.5100
      3 O3        -15.3339   -3.6886   55.6833 O.2     1  ZINC001191386213   -0.5200
      4 N4        -14.2351   -1.7613   55.6829 N.am    1  ZINC001191386213   -0.6800
      5 C5        -13.3067   -2.2417   54.7525 C.ar    1  ZINC001191386213    0.1400
      6 C6        -13.4177   -3.5382   54.2661 C.ar    1  ZINC001191386213   -0.1400
      7 C7        -12.5028   -4.0158   53.3468 C.ar    1  ZINC001191386213   -0.1000
      8 C8        -11.4736   -3.2075   52.9073 C.ar    1  ZINC001191386213   -0.1100
      9 C9        -11.3545   -1.9056   53.3904 C.ar    1  ZINC001191386213    0.0100
     10 C10       -10.2483   -1.0352   52.9187 C.2     1  ZINC001191386213    0.0700
     11 N11       -10.1563    0.2668   53.0893 N.2     1  ZINC001191386213   -0.2500
     12 N12        -9.0772    0.7207   52.5617 N.pl3   1  ZINC001191386213   -0.3800
     13 C13        -8.3725   -0.3023   51.9920 C.2     1  ZINC001191386213   -0.0400
     14 C14        -7.0839   -0.1999   51.2879 C.2     1  ZINC001191386213    0.6100
     15 O15        -6.6840   -1.1295   50.6132 O.2     1  ZINC001191386213   -0.5100
     16 N16        -6.3473    0.9241   51.3908 N.am    1  ZINC001191386213   -0.6200
     17 C17        -6.7096    2.1177   52.1688 C.3     1  ZINC001191386213    0.0800
     18 C18        -5.5832    3.1538   51.9696 C.3     1  ZINC001191386213   -0.1200
     19 C19        -4.9258    2.7008   50.6392 C.3     1  ZINC001191386213   -0.0600
     20 H20        -5.4810    3.0785   49.7806 H       1  ZINC001191386213    0.1000
     21 C21        -3.4824    3.1294   50.5766 C.ar    1  ZINC001191386213   -0.1100
     22 C22        -3.0416    4.1876   51.3481 C.ar    1  ZINC001191386213   -0.0900
     23 C23        -1.7173    4.5811   51.2908 C.ar    1  ZINC001191386213   -0.1300
     24 C24        -0.8331    3.9170   50.4616 C.ar    1  ZINC001191386213   -0.0900
     25 C25        -1.2719    2.8584   49.6886 C.ar    1  ZINC001191386213   -0.1500
     26 C26        -2.5960    2.4593   49.7501 C.ar    1  ZINC001191386213    0.1100
     27 F27        -3.0261    1.4249   48.9950 F       1  ZINC001191386213   -0.1400
     28 C28        -5.0417    1.1576   50.7471 C.3     1  ZINC001191386213    0.1200
     29 C29        -9.1049   -1.4529   52.2135 C.2     1  ZINC001191386213   -0.1300
     30 C30       -12.2788   -1.4217   54.3114 C.ar    1  ZINC001191386213   -0.1000
     31 H31       -16.9662   -2.8184   57.3303 H       1  ZINC001191386213    0.1000
     32 H32       -15.7193   -1.7555   58.0258 H       1  ZINC001191386213    0.0900
     33 H33       -16.7480   -1.1695   56.6966 H       1  ZINC001191386213    0.0900
     34 H34       -14.1577   -0.8558   56.0221 H       1  ZINC001191386213    0.4100
     35 H35       -14.2207   -4.1747   54.6074 H       1  ZINC001191386213    0.1300
     36 H36       -12.5931   -5.0245   52.9715 H       1  ZINC001191386213    0.1300
     37 H37       -10.7603   -3.5842   52.1892 H       1  ZINC001191386213    0.1300
     38 H38        -8.8032    1.6512   52.5662 H       1  ZINC001191386213    0.4400
     39 H39        -7.6545    2.5233   51.8071 H       1  ZINC001191386213    0.0700
     40 H40        -6.7941    1.8606   53.2246 H       1  ZINC001191386213    0.0800
     41 H41        -5.9957    4.1582   51.8734 H       1  ZINC001191386213    0.0900
     42 H42        -4.8666    3.1068   52.7895 H       1  ZINC001191386213    0.0900
     43 H43        -3.7318    4.7077   51.9959 H       1  ZINC001191386213    0.1300
     44 H44        -1.3736    5.4082   51.8942 H       1  ZINC001191386213    0.1300
     45 H45         0.2010    4.2254   50.4174 H       1  ZINC001191386213    0.1300
     46 H46        -0.5810    2.3401   49.0403 H       1  ZINC001191386213    0.1400
     47 H47        -4.2337    0.7585   51.3603 H       1  ZINC001191386213    0.0800
     48 H48        -5.0253    0.7056   49.7554 H       1  ZINC001191386213    0.0900
     49 H49        -8.8560   -2.4576   51.9052 H       1  ZINC001191386213    0.1700
     50 H50       -12.1905   -0.4135   54.6886 H       1  ZINC001191386213    0.1500
@<TRIPOS>BOND
     1     1     2    1
     2     1    31    1
     3     1    32    1
     4     1    33    1
     5     2     3    2
     6     2     4   am
     7     4     5    1
     8     4    34    1
     9     5    30   ar
    10     5     6   ar
    11     6     7   ar
    12     6    35    1
    13     7     8   ar
    14     7    36    1
    15     8     9   ar
    16     8    37    1
    17     9    10    1
    18     9    30   ar
    19    10    29    1
    20    10    11    2
    21    11    12    1
    22    12    13    1
    23    12    38    1
    24    13    14    1
    25    13    29    2
    26    14    15    2
    27    14    16   am
    28    16    28    1
    29    16    17    1
    30    17    18    1
    31    17    39    1
    32    17    40    1
    33    18    19    1
    34    18    41    1
    35    18    42    1
    36    19    20    1
    37    19    21    1
    38    19    28    1
    39    21    26   ar
    40    21    22   ar
    41    22    23   ar
    42    22    43    1
    43    23    24   ar
    44    23    44    1
    45    24    25   ar
    46    24    45    1
    47    25    26   ar
    48    25    46    1
    49    26    27    1
    50    28    47    1
    51    28    48    1
    52    29    49    1
    53    30    50    1
@<TRIPOS>SUBSTRUCTURE
     1 ZINC001191386213        1 TEMP              0 ****  ****    0 ROOT


##########                                Name:    ZINC000482846390
##########                DOCK_Rotatable_Bonds:                   9
##########                         Heavy_Atoms:                  30
##########                    Molecular_Weight:             420.469
##########                DOCK_Rotatable_Bonds:                   9
##########                       Formal_Charge:          -0.0100011
##########                     HBond_Acceptors:                  11
##########                        HBond_Donors:                   2
##########                         Heavy_Atoms:                  30
##########                          Grid_Score:          -36.460560
##########                     Grid_vdw_energy:          -35.561211
##########                      Grid_es_energy:           -0.899349
##########           Internal_energy_repulsive:           23.355068

@<TRIPOS>MOLECULE
ZINC000482846390
 58 60 1 0 0
SMALL
USER_CHARGES


@<TRIPOS>ATOM
      1 C1        -10.0846   -3.3935   59.5147 C.3     1  ZINC000482846390   -0.1000
      2 C2        -11.0356   -3.5644   58.3582 C.2     1  ZINC000482846390    0.0900
      3 C3        -12.0561   -2.7365   58.0354 C.2     1  ZINC000482846390   -0.2700
      4 C4        -12.6875   -3.2542   56.8998 C.2     1  ZINC000482846390    0.0700
      5 C5        -13.8752   -2.6497   56.1963 C.3     1  ZINC000482846390   -0.0500
      6 C6        -13.3995   -1.8771   54.9643 C.3     1  ZINC000482846390    0.1500
      7 H7        -14.0760   -1.0436   54.7746 H       1  ZINC000482846390    0.1000
      8 C8        -13.3865   -2.8095   53.7513 C.3     1  ZINC000482846390   -0.1700
      9 N9        -12.0476   -1.3647   55.2011 N.am    1  ZINC000482846390   -0.6800
     10 C10       -11.8753   -0.1398   55.7362 C.2     1  ZINC000482846390    0.5100
     11 O11       -12.8400    0.5380   56.0232 O.2     1  ZINC000482846390   -0.5200
     12 C12       -10.4962    0.3835   55.9760 C.2     1  ZINC000482846390    0.5100
     13 O13        -9.8830    0.0461   56.9674 O.2     1  ZINC000482846390   -0.5100
     14 N14        -9.9332    1.2301   55.0913 N.am    1  ZINC000482846390   -0.5900
     15 C15        -8.5754    1.7478   55.3112 C.3     1  ZINC000482846390    0.0500
     16 C16        -7.7220    1.4244   54.0786 C.3     1  ZINC000482846390    0.1000
     17 N17        -8.4546    1.8460   52.8764 N.am    1  ZINC000482846390   -0.6000
     18 C18        -7.8913    2.6918   51.9912 C.2     1  ZINC000482846390    0.5200
     19 O19        -8.5061    3.0328   51.0020 O.2     1  ZINC000482846390   -0.5000
     20 C20        -6.5095    3.2099   52.2276 C.2     1  ZINC000482846390    0.5200
     21 O21        -6.3489    4.2936   52.7495 O.2     1  ZINC000482846390   -0.5000
     22 N22        -5.4419    2.4736   51.8610 N.am    1  ZINC000482846390   -0.6000
     23 C23        -5.6117    1.1595   51.2210 C.3     1  ZINC000482846390    0.0700
     24 C24        -4.7564    1.1269   49.9494 C.3     1  ZINC000482846390    0.0500
     25 O25        -3.4168    1.5070   50.2733 O.3     1  ZINC000482846390   -0.3700
     26 C26        -3.2916    2.8399   50.7748 C.3     1  ZINC000482846390    0.0500
     27 C27        -4.0720    2.9626   52.0836 C.3     1  ZINC000482846390    0.0700
     28 C28        -9.8125    1.3283   52.6564 C.3     1  ZINC000482846390    0.0900
     29 C29       -10.6637    1.6474   53.8862 C.3     1  ZINC000482846390    0.0900
     30 N30       -12.0684   -4.3534   56.5532 N.2     1  ZINC000482846390   -0.2800
     31 N31       -11.0185   -4.5675   57.4556 N.pl3   1  ZINC000482846390   -0.4700
     32 H32        -9.2259   -2.8032   59.1947 H       1  ZINC000482846390    0.0800
     33 H33       -10.5937   -2.8813   60.3312 H       1  ZINC000482846390    0.0900
     34 H34        -9.7463   -4.3723   59.8546 H       1  ZINC000482846390    0.0700
     35 H35       -12.3340   -1.8354   58.5618 H       1  ZINC000482846390    0.1500
     36 H36       -14.5567   -3.4424   55.8873 H       1  ZINC000482846390    0.0900
     37 H37       -14.3919   -1.9703   56.8741 H       1  ZINC000482846390    0.1100
     38 H38       -14.3923   -3.1906   53.5751 H       1  ZINC000482846390    0.0700
     39 H39       -13.0475   -2.2590   52.8737 H       1  ZINC000482846390    0.0700
     40 H40       -12.7101   -3.6429   53.9410 H       1  ZINC000482846390    0.0600
     41 H41       -11.2765   -1.9071   54.9728 H       1  ZINC000482846390    0.4200
     42 H42        -8.6146    2.8274   55.4560 H       1  ZINC000482846390    0.0800
     43 H43        -8.1412    1.2736   56.1914 H       1  ZINC000482846390    0.1600
     44 H44        -6.7756    1.9620   54.1375 H       1  ZINC000482846390    0.1100
     45 H45        -7.5341    0.3516   54.0350 H       1  ZINC000482846390    0.0800
     46 H46        -5.2857    0.3741   51.9029 H       1  ZINC000482846390    0.0900
     47 H47        -6.6600    1.0098   50.9623 H       1  ZINC000482846390    0.0900
     48 H48        -4.7586    0.1189   49.5347 H       1  ZINC000482846390    0.1100
     49 H49        -5.1654    1.8234   49.2174 H       1  ZINC000482846390    0.0600
     50 H50        -2.2401    3.0641   50.9540 H       1  ZINC000482846390    0.1100
     51 H51        -3.6953    3.5425   50.0459 H       1  ZINC000482846390    0.0600
     52 H52        -4.0995    4.0059   52.3982 H       1  ZINC000482846390    0.1100
     53 H53        -3.5932    2.3588   52.8545 H       1  ZINC000482846390    0.0800
     54 H54       -10.2466    1.8025   51.7762 H       1  ZINC000482846390    0.0900
     55 H55        -9.7733    0.2487   52.5116 H       1  ZINC000482846390    0.0900
     56 H56       -11.6097    1.1091   53.8259 H       1  ZINC000482846390    0.1100
     57 H57       -10.8525    2.7199   53.9322 H       1  ZINC000482846390    0.0800
     58 H58       -10.3933   -5.3090   57.4383 H       1  ZINC000482846390    0.4400
@<TRIPOS>BOND
     1     1     2    1
     2     1    32    1
     3     1    33    1
     4     1    34    1
     5     2    31    1
     6     2     3    2
     7     3     4    1
     8     3    35    1
     9     4     5    1
    10     4    30    2
    11     5     6    1
    12     5    36    1
    13     5    37    1
    14     6     7    1
    15     6     8    1
    16     6     9    1
    17     8    38    1
    18     8    39    1
    19     8    40    1
    20     9    10   am
    21     9    41    1
    22    10    11    2
    23    10    12    1
    24    12    13    2
    25    12    14   am
    26    14    29    1
    27    14    15    1
    28    15    16    1
    29    15    42    1
    30    15    43    1
    31    16    17    1
    32    16    44    1
    33    16    45    1
    34    17    18   am
    35    17    28    1
    36    18    19    2
    37    18    20    1
    38    20    21    2
    39    20    22   am
    40    22    27    1
    41    22    23    1
    42    23    24    1
    43    23    46    1
    44    23    47    1
    45    24    25    1
    46    24    48    1
    47    24    49    1
    48    25    26    1
    49    26    27    1
    50    26    50    1
    51    26    51    1
    52    27    52    1
    53    27    53    1
    54    28    29    1
    55    28    54    1
    56    28    55    1
    57    29    56    1
    58    29    57    1
    59    30    31    1
    60    31    58    1
@<TRIPOS>SUBSTRUCTURE
     1 ZINC000482846390        1 TEMP              0 ****  ****    0 ROOT


##########                                Name:    ZINC001312809190
##########                DOCK_Rotatable_Bonds:                   6
##########                         Heavy_Atoms:                  29
##########                    Molecular_Weight:             395.501
##########                DOCK_Rotatable_Bonds:                   6
##########                       Formal_Charge:           0.0199995
##########                     HBond_Acceptors:                   6
##########                        HBond_Donors:                   1
##########                         Heavy_Atoms:                  29
##########                          Grid_Score:          -36.427460
##########                     Grid_vdw_energy:          -33.695587
##########                      Grid_es_energy:           -2.731872
##########           Internal_energy_repulsive:           32.862728

@<TRIPOS>MOLECULE
ZINC001312809190
 58 61 1 0 0
SMALL
USER_CHARGES


@<TRIPOS>ATOM
      1 C1         -2.6025    2.4055   49.1455 C.3     1  ZINC001312809190    0.0300
      2 O2         -3.9958    2.0974   49.2216 O.3     1  ZINC001312809190   -0.3200
      3 C3         -4.6628    2.5253   50.3257 C.ar    1  ZINC001312809190    0.1300
      4 C4         -3.9810    3.1864   51.3366 C.ar    1  ZINC001312809190   -0.2100
      5 C5         -4.6615    3.6208   52.4578 C.ar    1  ZINC001312809190   -0.0800
      6 C6         -6.0207    3.3966   52.5730 C.ar    1  ZINC001312809190   -0.1300
      7 C7         -6.7027    2.7373   51.5667 C.ar    1  ZINC001312809190   -0.0500
      8 C8         -8.1844    2.4941   51.6956 C.3     1  ZINC001312809190    0.1200
      9 H9         -8.4394    1.5454   51.2233 H       1  ZINC001312809190    0.0500
     10 C10        -8.9489    3.6275   51.0087 C.3     1  ZINC001312809190   -0.1400
     11 N11        -8.5511    2.4474   53.1174 N.3     1  ZINC001312809190   -0.5300
     12 C12        -8.1254    1.1817   53.7295 C.3     1  ZINC001312809190    0.0300
     13 C13        -8.3610    1.2451   55.2424 C.3     1  ZINC001312809190    0.1400
     14 N14        -9.7655    1.6103   55.4816 N.am    1  ZINC001312809190   -0.6300
     15 C15       -10.5381    0.8814   56.3112 C.2     1  ZINC001312809190    0.7100
     16 O16       -11.6973    1.1978   56.4972 O.2     1  ZINC001312809190   -0.5800
     17 N17       -10.0258   -0.1983   56.9344 N.am    1  ZINC001312809190   -0.7300
     18 C18       -10.8657   -0.9906   57.8361 C.3     1  ZINC001312809190    0.1800
     19 H19       -11.5979   -0.3588   58.3389 H       1  ZINC001312809190    0.1200
     20 C20       -11.5469   -2.1208   57.0891 C.ar    1  ZINC001312809190   -0.1900
     21 C21       -12.2254   -2.1608   55.8915 C.ar    1  ZINC001312809190   -0.0500
     22 C22       -12.7508   -3.3567   55.4341 C.ar    1  ZINC001312809190   -0.1500
     23 C23       -12.5916   -4.5075   56.1832 C.ar    1  ZINC001312809190   -0.0800
     24 C24       -11.9153   -4.4690   57.3852 C.ar    1  ZINC001312809190   -0.1400
     25 C25       -11.3866   -3.2693   57.8541 C.ar    1  ZINC001312809190    0.1100
     26 O26       -10.7091   -3.0043   59.0049 O.3     1  ZINC001312809190   -0.2900
     27 C27       -10.0015   -1.7600   58.8630 C.3     1  ZINC001312809190    0.0800
     28 H28        -8.9977   -1.9289   58.4731 H       1  ZINC001312809190    0.0900
     29 C29        -9.9438   -1.0142   60.1976 C.3     1  ZINC001312809190   -0.1500
     30 C30       -10.3043    2.7924   54.7919 C.3     1  ZINC001312809190    0.1200
     31 C31        -9.9923    2.6681   53.2969 C.3     1  ZINC001312809190    0.0400
     32 C32        -6.0281    2.3065   50.4410 C.ar    1  ZINC001312809190   -0.1500
     33 H33        -2.1927    2.0079   48.2171 H       1  ZINC001312809190    0.1000
     34 H34        -2.4677    3.4869   49.1685 H       1  ZINC001312809190    0.0600
     35 H35        -2.0844    1.9567   49.9929 H       1  ZINC001312809190    0.0600
     36 H36        -2.9189    3.3611   51.2476 H       1  ZINC001312809190    0.1300
     37 H37        -4.1310    4.1355   53.2453 H       1  ZINC001312809190    0.1300
     38 H38        -6.5508    3.7366   53.4503 H       1  ZINC001312809190    0.1300
     39 H39        -8.6940    4.5763   51.4810 H       1  ZINC001312809190    0.0700
     40 H40        -8.6768    3.6622   49.9538 H       1  ZINC001312809190    0.0600
     41 H41       -10.0206    3.4516   51.1020 H       1  ZINC001312809190    0.0600
     42 H42        -8.7032    0.3603   53.3056 H       1  ZINC001312809190    0.0400
     43 H43        -7.0655    1.0209   53.5328 H       1  ZINC001312809190    0.1000
     44 H44        -8.1551    0.2711   55.6861 H       1  ZINC001312809190    0.1000
     45 H45        -7.7068    1.9972   55.6835 H       1  ZINC001312809190    0.0700
     46 H46        -9.1011   -0.4508   56.7858 H       1  ZINC001312809190    0.4000
     47 H47       -12.3477   -1.2593   55.3096 H       1  ZINC001312809190    0.1200
     48 H48       -13.2835   -3.3905   54.4952 H       1  ZINC001312809190    0.1300
     49 H49       -12.9992   -5.4416   55.8259 H       1  ZINC001312809190    0.1300
     50 H50       -11.7958   -5.3726   57.9645 H       1  ZINC001312809190    0.1300
     51 H51        -9.4067   -1.6184   60.9287 H       1  ZINC001312809190    0.0800
     52 H52        -9.4268   -0.0644   60.0610 H       1  ZINC001312809190    0.0800
     53 H53       -10.9570   -0.8283   60.5541 H       1  ZINC001312809190    0.0700
     54 H54       -11.3834    2.8412   54.9380 H       1  ZINC001312809190    0.0800
     55 H55        -9.8369    3.6931   55.1898 H       1  ZINC001312809190    0.0800
     56 H56       -10.2862    3.5852   52.7865 H       1  ZINC001312809190    0.0900
     57 H57       -10.5439    1.8259   52.8790 H       1  ZINC001312809190    0.0400
     58 H58        -6.5613    1.7919   49.6553 H       1  ZINC001312809190    0.1300
@<TRIPOS>BOND
     1     1     2    1
     2     1    33    1
     3     1    34    1
     4     1    35    1
     5     2     3    1
     6     3    32   ar
     7     3     4   ar
     8     4     5   ar
     9     4    36    1
    10     5     6   ar
    11     5    37    1
    12     6     7   ar
    13     6    38    1
    14     7     8    1
    15     7    32   ar
    16     8     9    1
    17     8    10    1
    18     8    11    1
    19    10    39    1
    20    10    40    1
    21    10    41    1
    22    11    31    1
    23    11    12    1
    24    12    13    1
    25    12    42    1
    26    12    43    1
    27    13    14    1
    28    13    44    1
    29    13    45    1
    30    14    15   am
    31    14    30    1
    32    15    16    2
    33    15    17   am
    34    17    18    1
    35    17    46    1
    36    18    19    1
    37    18    27    1
    38    18    20    1
    39    20    25   ar
    40    20    21   ar
    41    21    22   ar
    42    21    47    1
    43    22    23   ar
    44    22    48    1
    45    23    24   ar
    46    23    49    1
    47    24    25   ar
    48    24    50    1
    49    25    26    1
    50    26    27    1
    51    27    28    1
    52    27    29    1
    53    29    51    1
    54    29    52    1
    55    29    53    1
    56    30    31    1
    57    30    54    1
    58    30    55    1
    59    31    56    1
    60    31    57    1
    61    32    58    1
@<TRIPOS>SUBSTRUCTURE
     1 ZINC001312809190        1 TEMP              0 ****  ****    0 ROOT


##########                                Name:    ZINC000805177769
##########                DOCK_Rotatable_Bonds:                  10
##########                         Heavy_Atoms:                  30
##########                    Molecular_Weight:             417.548
##########                DOCK_Rotatable_Bonds:                  10
##########                       Formal_Charge:           0.0199995
##########                     HBond_Acceptors:                   7
##########                        HBond_Donors:                   1
##########                         Heavy_Atoms:                  30
##########                          Grid_Score:          -36.416737
##########                     Grid_vdw_energy:          -34.494965
##########                      Grid_es_energy:           -1.921772
##########           Internal_energy_repulsive:           47.429100

@<TRIPOS>MOLECULE
ZINC000805177769
 65 66 1 0 0
SMALL
USER_CHARGES


@<TRIPOS>ATOM
      1 C1          1.1200    1.9372   50.1698 C.3     1  ZINC000805177769   -0.1200
      2 C2         -0.3663    2.1624   50.2764 C.ar    1  ZINC000805177769   -0.0800
      3 C3         -1.2182    1.6074   49.3403 C.ar    1  ZINC000805177769   -0.1200
      4 C4         -2.5818    1.8141   49.4381 C.ar    1  ZINC000805177769   -0.1100
      5 C5         -3.0930    2.5753   50.4723 C.ar    1  ZINC000805177769   -0.0900
      6 C6         -4.5792    2.8009   50.5786 C.3     1  ZINC000805177769   -0.0900
      7 C7         -5.1485    1.9285   51.6993 C.3     1  ZINC000805177769    0.1500
      8 H8         -4.3522    1.6667   52.3961 H       1  ZINC000805177769    0.1000
      9 C9         -5.7420    0.6519   51.1002 C.3     1  ZINC000805177769   -0.1700
     10 N10        -6.1954    2.6673   52.4094 N.am    1  ZINC000805177769   -0.6900
     11 C11        -7.2079    3.2306   51.7209 C.2     1  ZINC000805177769    0.5100
     12 O12        -7.2515    3.1271   50.5127 O.2     1  ZINC000805177769   -0.5100
     13 C13        -8.2768    3.9828   52.4456 C.2     1  ZINC000805177769    0.5200
     14 O14        -8.3825    5.1823   52.2960 O.2     1  ZINC000805177769   -0.5200
     15 N15        -9.1234    3.3287   53.2654 N.am    1  ZINC000805177769   -0.5900
     16 C16       -10.2150    3.9418   54.0359 C.3     1  ZINC000805177769    0.1100
     17 C17       -10.9271    2.8081   54.8035 C.3     1  ZINC000805177769   -0.1500
     18 C18       -10.5539    1.5452   53.9829 C.3     1  ZINC000805177769    0.1500
     19 H19       -11.2118    1.4306   53.1215 H       1  ZINC000805177769    0.1200
     20 N20       -10.5806    0.3458   54.8239 N.am    1  ZINC000805177769   -0.5900
     21 C21       -10.0067    0.3829   56.1713 C.3     1  ZINC000805177769    0.0800
     22 C22       -11.1329   -0.7917   54.3578 C.2     1  ZINC000805177769    0.6600
     23 O23       -11.6103   -0.8222   53.2408 O.2     1  ZINC000805177769   -0.5600
     24 O24       -11.1561   -1.8944   55.1300 O.3     1  ZINC000805177769   -0.3600
     25 C25       -12.3064   -2.7701   54.9945 C.3     1  ZINC000805177769    0.1400
     26 C26       -12.3550   -3.7356   56.1806 C.3     1  ZINC000805177769   -0.1800
     27 C27       -13.5855   -1.9311   54.9673 C.3     1  ZINC000805177769   -0.1400
     28 C28       -12.1909   -3.5662   53.6932 C.3     1  ZINC000805177769   -0.1800
     29 C29        -9.1120    1.8790   53.5330 C.3     1  ZINC000805177769    0.0900
     30 C30        -2.2409    3.1293   51.4095 C.ar    1  ZINC000805177769   -0.0800
     31 C31        -2.7983    3.9590   52.5374 C.3     1  ZINC000805177769   -0.1200
     32 C32        -0.8780    2.9196   51.3139 C.ar    1  ZINC000805177769   -0.1200
     33 H33         1.3912    1.0358   50.7194 H       1  ZINC000805177769    0.0700
     34 H34         1.3955    1.8204   49.1217 H       1  ZINC000805177769    0.0700
     35 H35         1.6482    2.7925   50.5912 H       1  ZINC000805177769    0.0700
     36 H36        -0.8188    1.0126   48.5322 H       1  ZINC000805177769    0.1200
     37 H37        -3.2475    1.3809   48.7062 H       1  ZINC000805177769    0.1200
     38 H38        -4.7724    3.8502   50.8014 H       1  ZINC000805177769    0.0800
     39 H39        -5.0554    2.5362   49.6345 H       1  ZINC000805177769    0.0900
     40 H40        -6.5383    0.9137   50.4034 H       1  ZINC000805177769    0.0600
     41 H41        -4.9631    0.1022   50.5719 H       1  ZINC000805177769    0.0700
     42 H42        -6.1476    0.0303   51.8985 H       1  ZINC000805177769    0.0600
     43 H43        -6.1599    2.7511   53.3751 H       1  ZINC000805177769    0.4100
     44 H44        -9.8093    4.6683   54.7401 H       1  ZINC000805177769    0.0900
     45 H45       -10.9172    4.4298   53.3601 H       1  ZINC000805177769    0.0900
     46 H46       -10.5456    2.7330   55.8218 H       1  ZINC000805177769    0.0900
     47 H47       -12.0061    2.9619   54.8052 H       1  ZINC000805177769    0.0900
     48 H48       -10.7752    0.6788   56.8855 H       1  ZINC000805177769    0.0600
     49 H49        -9.6290   -0.6055   56.4327 H       1  ZINC000805177769    0.0800
     50 H50        -9.1890    1.1033   56.1982 H       1  ZINC000805177769    0.0800
     51 H51       -12.4372   -3.1684   57.1077 H       1  ZINC000805177769    0.0600
     52 H52       -13.2185   -4.3929   56.0788 H       1  ZINC000805177769    0.0700
     53 H53       -11.4437   -4.3333   56.2000 H       1  ZINC000805177769    0.0900
     54 H54       -13.5510   -1.2433   54.1224 H       1  ZINC000805177769    0.0700
     55 H55       -14.4491   -2.5883   54.8656 H       1  ZINC000805177769    0.0800
     56 H56       -13.6678   -1.3638   55.8945 H       1  ZINC000805177769    0.0700
     57 H57       -11.2797   -4.1640   53.7126 H       1  ZINC000805177769    0.0900
     58 H58       -13.0544   -4.2235   53.5915 H       1  ZINC000805177769    0.0700
     59 H59       -12.1563   -2.8784   52.8483 H       1  ZINC000805177769    0.0600
     60 H60        -8.8589    1.3250   52.6292 H       1  ZINC000805177769    0.0900
     61 H61        -8.4037    1.6512   54.3295 H       1  ZINC000805177769    0.0800
     62 H62        -3.0195    3.3140   53.3878 H       1  ZINC000805177769    0.0700
     63 H63        -2.0657    4.7104   52.8321 H       1  ZINC000805177769    0.0700
     64 H64        -3.7126    4.4525   52.2081 H       1  ZINC000805177769    0.0700
     65 H65        -0.2124    3.3524   52.0460 H       1  ZINC000805177769    0.1200
@<TRIPOS>BOND
     1     1     2    1
     2     1    33    1
     3     1    34    1
     4     1    35    1
     5     2    32   ar
     6     2     3   ar
     7     3     4   ar
     8     3    36    1
     9     4     5   ar
    10     4    37    1
    11     5     6    1
    12     5    30   ar
    13     6     7    1
    14     6    38    1
    15     6    39    1
    16     7     8    1
    17     7     9    1
    18     7    10    1
    19     9    40    1
    20     9    41    1
    21     9    42    1
    22    10    11   am
    23    10    43    1
    24    11    12    2
    25    11    13    1
    26    13    14    2
    27    13    15   am
    28    15    29    1
    29    15    16    1
    30    16    17    1
    31    16    44    1
    32    16    45    1
    33    17    18    1
    34    17    46    1
    35    17    47    1
    36    18    19    1
    37    18    20    1
    38    18    29    1
    39    20    21    1
    40    20    22   am
    41    21    48    1
    42    21    49    1
    43    21    50    1
    44    22    23    2
    45    22    24    1
    46    24    25    1
    47    25    26    1
    48    25    27    1
    49    25    28    1
    50    26    51    1
    51    26    52    1
    52    26    53    1
    53    27    54    1
    54    27    55    1
    55    27    56    1
    56    28    57    1
    57    28    58    1
    58    28    59    1
    59    29    60    1
    60    29    61    1
    61    30    31    1
    62    30    32   ar
    63    31    62    1
    64    31    63    1
    65    31    64    1
    66    32    65    1
@<TRIPOS>SUBSTRUCTURE
     1 ZINC000805177769        1 TEMP              0 ****  ****    0 ROOT


##########                                Name:    ZINC000471198073
##########                DOCK_Rotatable_Bonds:                  12
##########                         Heavy_Atoms:                  30
##########                    Molecular_Weight:             409.528
##########                DOCK_Rotatable_Bonds:                  12
##########                       Formal_Charge:          -0.0399998
##########                     HBond_Acceptors:                   6
##########                        HBond_Donors:                   3
##########                         Heavy_Atoms:                  30
##########                          Grid_Score:          -36.410252
##########                     Grid_vdw_energy:          -34.639805
##########                      Grid_es_energy:           -1.770448
##########           Internal_energy_repulsive:           27.926662

@<TRIPOS>MOLECULE
ZINC000471198073
 61 62 1 0 0
SMALL
USER_CHARGES


@<TRIPOS>ATOM
      1 C1        -12.2783   -0.5961   54.3636 C.3     1  ZINC000471198073   -0.1400
      2 C2        -11.0082   -1.0233   53.6251 C.3     1  ZINC000471198073   -0.1100
      3 C3        -11.3893   -1.7706   52.3455 C.3     1  ZINC000471198073   -0.1500
      4 C4        -10.1981    0.1973   53.2715 C.2     1  ZINC000471198073    0.5200
      5 O5        -10.5402    0.9057   52.3483 O.2     1  ZINC000471198073   -0.5200
      6 N6         -9.0936    0.5018   53.9813 N.am    1  ZINC000471198073   -0.6700
      7 C7         -8.3414    1.6351   53.6530 C.ar    1  ZINC000471198073    0.1600
      8 C8         -8.7028    2.8788   54.1550 C.ar    1  ZINC000471198073   -0.1500
      9 C9         -7.9604    3.9987   53.8318 C.ar    1  ZINC000471198073   -0.0800
     10 C10        -6.8570    3.8856   53.0088 C.ar    1  ZINC000471198073   -0.1300
     11 C11        -6.4902    2.6441   52.5026 C.ar    1  ZINC000471198073    0.1500
     12 N12        -5.3740    2.5302   51.6698 N.am    1  ZINC000471198073   -0.6400
     13 C13        -5.5334    2.4827   50.3323 C.2     1  ZINC000471198073    0.5100
     14 O14        -6.6463    2.5389   49.8512 O.2     1  ZINC000471198073   -0.5000
     15 C15        -4.3404    2.3610   49.4420 C.2     1  ZINC000471198073    0.5100
     16 O16        -4.4624    2.4953   48.2420 O.2     1  ZINC000471198073   -0.5100
     17 N17        -3.1282    2.1019   49.9712 N.am    1  ZINC000471198073   -0.7000
     18 C18        -1.9583    1.9808   49.0979 C.3     1  ZINC000471198073    0.1200
     19 C19        -0.8301    2.8662   49.6308 C.3     1  ZINC000471198073   -0.0900
     20 H20        -1.1800    3.8960   49.7038 H       1  ZINC000471198073    0.0800
     21 C21        -0.4050    2.3727   51.0152 C.3     1  ZINC000471198073   -0.0800
     22 C22        -0.8560    3.3599   52.0607 C.ar    1  ZINC000471198073   -0.0800
     23 C23        -0.0284    4.4045   52.4277 C.ar    1  ZINC000471198073   -0.1200
     24 C24        -0.4420    5.3100   53.3867 C.ar    1  ZINC000471198073   -0.1200
     25 C25        -1.6835    5.1712   53.9786 C.ar    1  ZINC000471198073   -0.1200
     26 C26        -2.5116    4.1271   53.6110 C.ar    1  ZINC000471198073   -0.1200
     27 C27        -2.0997    3.2241   52.6488 C.ar    1  ZINC000471198073   -0.1200
     28 C28         0.3641    2.7999   48.6768 C.3     1  ZINC000471198073   -0.1000
     29 C29         1.4188    3.8209   49.1082 C.3     1  ZINC000471198073   -0.1600
     30 C30         0.9692    1.3950   48.7138 C.3     1  ZINC000471198073   -0.1700
     31 C31        -7.2305    1.5168   52.8302 C.ar    1  ZINC000471198073   -0.1400
     32 H32       -12.8642   -1.4789   54.6193 H       1  ZINC000471198073    0.0700
     33 H33       -12.0068   -0.0637   55.2752 H       1  ZINC000471198073    0.0600
     34 H34       -12.8685    0.0586   53.7226 H       1  ZINC000471198073    0.0600
     35 H35       -10.4180   -1.6780   54.2661 H       1  ZINC000471198073    0.1000
     36 H36       -11.9796   -1.1159   51.7044 H       1  ZINC000471198073    0.0600
     37 H37       -10.4845   -2.0749   51.8193 H       1  ZINC000471198073    0.0600
     38 H38       -11.9753   -2.6534   52.6012 H       1  ZINC000471198073    0.0700
     39 H39        -8.8200   -0.0647   54.7195 H       1  ZINC000471198073    0.4100
     40 H40        -9.5653    2.9709   54.7986 H       1  ZINC000471198073    0.1300
     41 H41        -8.2438    4.9645   54.2233 H       1  ZINC000471198073    0.1300
     42 H42        -6.2788    4.7627   52.7580 H       1  ZINC000471198073    0.1400
     43 H43        -4.4845    2.4853   52.0542 H       1  ZINC000471198073    0.4200
     44 H44        -3.0305    1.9957   50.9304 H       1  ZINC000471198073    0.4200
     45 H45        -1.6264    0.9427   49.0770 H       1  ZINC000471198073    0.0700
     46 H46        -2.2234    2.2978   48.0893 H       1  ZINC000471198073    0.0800
     47 H47        -0.8613    1.4024   51.2109 H       1  ZINC000471198073    0.0800
     48 H48         0.6803    2.2775   51.0495 H       1  ZINC000471198073    0.0800
     49 H49         0.9416    4.5130   51.9653 H       1  ZINC000471198073    0.1200
     50 H50         0.2049    6.1257   53.6740 H       1  ZINC000471198073    0.1200
     51 H51        -2.0064    5.8782   54.7284 H       1  ZINC000471198073    0.1200
     52 H52        -3.4814    4.0184   54.0735 H       1  ZINC000471198073    0.1200
     53 H53        -2.7466    2.4083   52.3616 H       1  ZINC000471198073    0.1200
     54 H54         0.0326    3.0261   47.6633 H       1  ZINC000471198073    0.0800
     55 H55         1.8214    3.5386   50.0810 H       1  ZINC000471198073    0.0600
     56 H56         2.2243    3.8433   48.3742 H       1  ZINC000471198073    0.0600
     57 H57         0.9621    4.8082   49.1767 H       1  ZINC000471198073    0.0600
     58 H58         0.1874    0.6579   48.5308 H       1  ZINC000471198073    0.0600
     59 H59         1.7365    1.3096   47.9445 H       1  ZINC000471198073    0.0600
     60 H60         1.4145    1.2170   49.6926 H       1  ZINC000471198073    0.0700
     61 H61        -6.9477    0.5510   52.4382 H       1  ZINC000471198073    0.1400
@<TRIPOS>BOND
     1     1     2    1
     2     1    32    1
     3     1    33    1
     4     1    34    1
     5     2     3    1
     6     2     4    1
     7     2    35    1
     8     3    36    1
     9     3    37    1
    10     3    38    1
    11     4     5    2
    12     4     6   am
    13     6     7    1
    14     6    39    1
    15     7    31   ar
    16     7     8   ar
    17     8     9   ar
    18     8    40    1
    19     9    10   ar
    20     9    41    1
    21    10    11   ar
    22    10    42    1
    23    11    12    1
    24    11    31   ar
    25    12    13   am
    26    12    43    1
    27    13    14    2
    28    13    15    1
    29    15    16    2
    30    15    17   am
    31    17    18    1
    32    17    44    1
    33    18    19    1
    34    18    45    1
    35    18    46    1
    36    19    20    1
    37    19    21    1
    38    19    28    1
    39    21    22    1
    40    21    47    1
    41    21    48    1
    42    22    27   ar
    43    22    23   ar
    44    23    24   ar
    45    23    49    1
    46    24    25   ar
    47    24    50    1
    48    25    26   ar
    49    25    51    1
    50    26    27   ar
    51    26    52    1
    52    27    53    1
    53    28    29    1
    54    28    30    1
    55    28    54    1
    56    29    55    1
    57    29    56    1
    58    29    57    1
    59    30    58    1
    60    30    59    1
    61    30    60    1
    62    31    61    1
@<TRIPOS>SUBSTRUCTURE
     1 ZINC000471198073        1 TEMP              0 ****  ****    0 ROOT


##########                                Name:    ZINC000919225759
##########                DOCK_Rotatable_Bonds:                   4
##########                         Heavy_Atoms:                  27
##########                    Molecular_Weight:             375.295
##########                DOCK_Rotatable_Bonds:                   4
##########                       Formal_Charge:                0.04
##########                     HBond_Acceptors:                  11
##########                        HBond_Donors:                   0
##########                         Heavy_Atoms:                  27
##########                          Grid_Score:          -36.402023
##########                     Grid_vdw_energy:          -35.330688
##########                      Grid_es_energy:           -1.071333
##########           Internal_energy_repulsive:           13.907015

@<TRIPOS>MOLECULE
ZINC000919225759
 40 41 1 0 0
SMALL
USER_CHARGES


@<TRIPOS>ATOM
      1 C1        -10.1774   -0.1369   57.3836 C.3     1  ZINC000919225759   -0.1500
      2 C2        -10.9159   -1.4064   57.0454 C.ar    1  ZINC000919225759    0.0900
      3 C3        -11.8433   -1.4195   56.0019 C.ar    1  ZINC000919225759   -0.1200
      4 C4        -12.1042   -0.1900   55.2257 C.2     1  ZINC000919225759    0.5200
      5 O5        -13.1973    0.3377   55.2729 O.2     1  ZINC000919225759   -0.4700
      6 O6        -11.1298    0.3461   54.4655 O.3     1  ZINC000919225759   -0.3400
      7 C7        -10.2411   -0.5785   53.7846 C.3     1  ZINC000919225759    0.1400
      8 H8         -9.9286   -1.3594   54.4779 H       1  ZINC000919225759    0.1100
      9 C9        -10.9740   -1.2116   52.6001 C.3     1  ZINC000919225759   -0.1700
     10 C10        -9.0288    0.1650   53.2859 C.ar    1  ZINC000919225759   -0.1000
     11 C11        -8.6745    1.3720   53.8586 C.ar    1  ZINC000919225759   -0.0400
     12 C12        -7.5624    2.0542   53.4012 C.ar    1  ZINC000919225759   -0.1100
     13 C13        -6.8046    1.5289   52.3716 C.ar    1  ZINC000919225759   -0.0500
     14 C14        -7.1584    0.3210   51.7994 C.ar    1  ZINC000919225759   -0.0400
     15 N15        -6.3471   -0.2413   50.6965 N.pl3   1  ZINC000919225759    0.0300
     16 O16        -5.3678    0.3600   50.2930 O.2     1  ZINC000919225759   -0.1500
     17 O17        -6.6588   -1.3054   50.1924 O.2     1  ZINC000919225759   -0.1500
     18 C18        -8.2678   -0.3630   52.2596 C.ar    1  ZINC000919225759   -0.0400
     19 C19       -12.5228   -2.6003   55.6949 C.ar    1  ZINC000919225759    0.0500
     20 C20       -12.2739   -3.7446   56.4233 C.ar    1  ZINC000919225759   -0.0600
     21 N21       -12.9928   -4.9973   56.0991 N.pl3   1  ZINC000919225759    0.0300
     22 O22       -13.8031   -5.0166   55.1899 O.2     1  ZINC000919225759   -0.1300
     23 O23       -12.7742   -6.0087   56.7415 O.2     1  ZINC000919225759   -0.1300
     24 C24       -11.3534   -3.7246   57.4564 C.ar    1  ZINC000919225759    0.0400
     25 C25       -10.6729   -2.5596   57.7625 C.ar    1  ZINC000919225759   -0.0500
     26 N26        -9.6896   -2.5478   58.8688 N.pl3   1  ZINC000919225759    0.0200
     27 O27        -9.9058   -3.1873   59.8826 O.2     1  ZINC000919225759   -0.1300
     28 O28        -8.6643   -1.8985   58.7654 O.2     1  ZINC000919225759   -0.1200
     29 H29        -9.3176   -0.0297   56.7224 H       1  ZINC000919225759    0.1200
     30 H30       -10.8435    0.7162   57.2546 H       1  ZINC000919225759    0.1200
     31 H31        -9.8373   -0.1792   58.4182 H       1  ZINC000919225759    0.0900
     32 H32       -11.2865   -0.4307   51.9068 H       1  ZINC000919225759    0.0700
     33 H33       -10.3069   -1.9057   52.0889 H       1  ZINC000919225759    0.0900
     34 H34       -11.8508   -1.7493   52.9608 H       1  ZINC000919225759    0.0700
     35 H35        -9.2667    1.7824   54.6631 H       1  ZINC000919225759    0.1500
     36 H36        -7.2859    2.9977   53.8482 H       1  ZINC000919225759    0.1500
     37 H37        -5.9361    2.0621   52.0138 H       1  ZINC000919225759    0.1600
     38 H38        -8.5442   -1.3065   51.8126 H       1  ZINC000919225759    0.1600
     39 H39       -13.2417   -2.6172   54.8891 H       1  ZINC000919225759    0.1900
     40 H40       -11.1626   -4.6235   58.0239 H       1  ZINC000919225759    0.1900
@<TRIPOS>BOND
     1     1     2    1
     2     1    29    1
     3     1    30    1
     4     1    31    1
     5     2    25   ar
     6     2     3   ar
     7     3     4    1
     8     3    19   ar
     9     4     5    2
    10     4     6    1
    11     6     7    1
    12     7     8    1
    13     7     9    1
    14     7    10    1
    15     9    32    1
    16     9    33    1
    17     9    34    1
    18    10    18   ar
    19    10    11   ar
    20    11    12   ar
    21    11    35    1
    22    12    13   ar
    23    12    36    1
    24    13    14   ar
    25    13    37    1
    26    14    15    1
    27    14    18   ar
    28    15    16    2
    29    15    17    2
    30    18    38    1
    31    19    20   ar
    32    19    39    1
    33    20    21    1
    34    20    24   ar
    35    21    22    2
    36    21    23    2
    37    24    25   ar
    38    24    40    1
    39    25    26    1
    40    26    27    2
    41    26    28    2
@<TRIPOS>SUBSTRUCTURE
     1 ZINC000919225759        1 TEMP              0 ****  ****    0 ROOT


##########                                Name:    ZINC000028372981
##########                DOCK_Rotatable_Bonds:                   7
##########                         Heavy_Atoms:                  28
##########                    Molecular_Weight:             380.443
##########                DOCK_Rotatable_Bonds:                   7
##########                       Formal_Charge:         1.78814e-07
##########                     HBond_Acceptors:                   6
##########                        HBond_Donors:                   1
##########                         Heavy_Atoms:                  28
##########                          Grid_Score:          -36.362953
##########                     Grid_vdw_energy:          -35.935940
##########                      Grid_es_energy:           -0.427015
##########           Internal_energy_repulsive:           17.829609

@<TRIPOS>MOLECULE
ZINC000028372981
 52 54 1 0 0
SMALL
USER_CHARGES


@<TRIPOS>ATOM
      1 C1         -3.5129    2.1778   50.2010 C.3     1  ZINC000028372981   -0.1800
      2 C2         -4.6308    1.2218   50.5284 C.2     1  ZINC000028372981    0.5200
      3 O3         -4.6696    0.1306   50.0007 O.2     1  ZINC000028372981   -0.5100
      4 N4         -5.5876    1.5795   51.4077 N.am    1  ZINC000028372981   -0.5500
      5 C5         -5.6453    2.8656   52.1070 C.3     1  ZINC000028372981    0.1000
      6 C6         -6.9044    2.7911   52.9860 C.3     1  ZINC000028372981   -0.0900
      7 C7         -7.4814    1.4213   52.7061 C.ar    1  ZINC000028372981   -0.1500
      8 C8         -8.6059    0.7993   53.2004 C.ar    1  ZINC000028372981    0.0000
      9 C9         -8.9301   -0.4948   52.7829 C.ar    1  ZINC000028372981   -0.1600
     10 C10       -10.1303   -1.1676   53.3130 C.2     1  ZINC000028372981    0.5200
     11 O11       -10.3748   -2.3143   52.9938 O.2     1  ZINC000028372981   -0.5000
     12 O12       -10.9559   -0.5111   54.1514 O.3     1  ZINC000028372981   -0.3200
     13 C13       -11.7550   -1.3181   55.0560 C.3     1  ZINC000028372981    0.0700
     14 H14       -11.3684   -2.3372   55.0715 H       1  ZINC000028372981    0.1200
     15 C15       -13.2086   -1.3313   54.5789 C.3     1  ZINC000028372981   -0.1700
     16 C16       -11.6869   -0.7339   56.4436 C.2     1  ZINC000028372981    0.5200
     17 O17       -12.6612   -0.7695   57.1649 O.2     1  ZINC000028372981   -0.4900
     18 N18       -10.5433   -0.1720   56.8829 N.am    1  ZINC000028372981   -0.6600
     19 C19       -10.4802    0.3704   58.1711 C.ar    1  ZINC000028372981    0.1500
     20 C20       -10.6301    1.7381   58.3584 C.ar    1  ZINC000028372981   -0.1300
     21 C21       -10.5677    2.2704   59.6315 C.ar    1  ZINC000028372981   -0.1000
     22 C22       -10.3568    1.4427   60.7188 C.ar    1  ZINC000028372981   -0.1300
     23 C23       -10.2074    0.0800   60.5358 C.ar    1  ZINC000028372981   -0.0700
     24 C24        -9.9782   -0.8183   61.7237 C.3     1  ZINC000028372981   -0.1200
     25 C25       -10.2679   -0.4582   59.2655 C.ar    1  ZINC000028372981   -0.1200
     26 C26       -10.1041   -1.9430   59.0668 C.3     1  ZINC000028372981   -0.1200
     27 C27        -8.1111   -1.1441   51.8545 C.ar    1  ZINC000028372981   -0.0200
     28 C28        -6.9939   -0.5138   51.3624 C.ar    1  ZINC000028372981   -0.1800
     29 C29        -6.6651    0.7794   51.7834 C.ar    1  ZINC000028372981    0.1900
     30 H30        -2.9599    2.4152   51.1097 H       1  ZINC000028372981    0.1000
     31 H31        -2.8412    1.7170   49.4767 H       1  ZINC000028372981    0.1000
     32 H32        -3.9291    3.0929   49.7795 H       1  ZINC000028372981    0.1000
     33 H33        -4.7588    2.9988   52.7271 H       1  ZINC000028372981    0.0900
     34 H34        -5.7324    3.6821   51.3902 H       1  ZINC000028372981    0.0900
     35 H35        -6.6392    2.8843   54.0392 H       1  ZINC000028372981    0.1000
     36 H36        -7.6128    3.5695   52.7025 H       1  ZINC000028372981    0.1000
     37 H37        -9.2353    1.3096   53.9142 H       1  ZINC000028372981    0.1400
     38 H38       -13.5952   -0.3122   54.5634 H       1  ZINC000028372981    0.0800
     39 H39       -13.2578   -1.7538   53.5753 H       1  ZINC000028372981    0.0800
     40 H40       -13.8085   -1.9372   55.2580 H       1  ZINC000028372981    0.0800
     41 H41        -9.7641   -0.1436   56.3059 H       1  ZINC000028372981    0.4100
     42 H42       -10.7998    2.3844   57.5098 H       1  ZINC000028372981    0.1400
     43 H43       -10.6843    3.3340   59.7777 H       1  ZINC000028372981    0.1300
     44 H44       -10.3087    1.8613   61.7133 H       1  ZINC000028372981    0.1200
     45 H45       -10.9379   -1.1597   62.1118 H       1  ZINC000028372981    0.0700
     46 H46        -9.3826   -1.6788   61.4189 H       1  ZINC000028372981    0.0700
     47 H47        -9.4482   -0.2662   62.4999 H       1  ZINC000028372981    0.0700
     48 H48       -11.0795   -2.4266   59.1204 H       1  ZINC000028372981    0.0700
     49 H49        -9.6581   -2.1320   58.0904 H       1  ZINC000028372981    0.0600
     50 H50        -9.4563   -2.3446   59.8460 H       1  ZINC000028372981    0.0800
     51 H51        -8.3571   -2.1422   51.5235 H       1  ZINC000028372981    0.1500
     52 H52        -6.3646   -1.0204   50.6457 H       1  ZINC000028372981    0.1500
@<TRIPOS>BOND
     1     1     2    1
     2     1    30    1
     3     1    31    1
     4     1    32    1
     5     2     3    2
     6     2     4   am
     7     4    29    1
     8     4     5    1
     9     5     6    1
    10     5    33    1
    11     5    34    1
    12     6     7    1
    13     6    35    1
    14     6    36    1
    15     7    29   ar
    16     7     8   ar
    17     8     9   ar
    18     8    37    1
    19     9    10    1
    20     9    27   ar
    21    10    11    2
    22    10    12    1
    23    12    13    1
    24    13    14    1
    25    13    15    1
    26    13    16    1
    27    15    38    1
    28    15    39    1
    29    15    40    1
    30    16    17    2
    31    16    18   am
    32    18    19    1
    33    18    41    1
    34    19    25   ar
    35    19    20   ar
    36    20    21   ar
    37    20    42    1
    38    21    22   ar
    39    21    43    1
    40    22    23   ar
    41    22    44    1
    42    23    24    1
    43    23    25   ar
    44    24    45    1
    45    24    46    1
    46    24    47    1
    47    25    26    1
    48    26    48    1
    49    26    49    1
    50    26    50    1
    51    27    28   ar
    52    27    51    1
    53    28    29   ar
    54    28    52    1
@<TRIPOS>SUBSTRUCTURE
     1 ZINC000028372981        1 TEMP              0 ****  ****    0 ROOT


##########                                Name:    ZINC000981048968
##########                DOCK_Rotatable_Bonds:                   7
##########                         Heavy_Atoms:                  25
##########                    Molecular_Weight:             344.414
##########                DOCK_Rotatable_Bonds:                   7
##########                       Formal_Charge:                0.02
##########                     HBond_Acceptors:                   7
##########                        HBond_Donors:                   2
##########                         Heavy_Atoms:                  25
##########                          Grid_Score:          -36.357258
##########                     Grid_vdw_energy:          -34.331200
##########                      Grid_es_energy:           -2.026058
##########           Internal_energy_repulsive:            4.787962

@<TRIPOS>MOLECULE
ZINC000981048968
 49 52 1 0 0
SMALL
USER_CHARGES


@<TRIPOS>ATOM
      1 C1         -3.5718    1.1587   50.3841 C.3     1  ZINC000981048968   -0.0800
      2 C2         -4.8992    0.5298   50.7215 C.2     1  ZINC000981048968   -0.0100
      3 C3         -5.7850    1.0106   51.6072 C.2     1  ZINC000981048968   -0.1600
      4 C4         -6.9161    0.0715   51.5978 C.2     1  ZINC000981048968   -0.2300
      5 C5         -8.1498    0.1547   52.3997 C.2     1  ZINC000981048968    0.5900
      6 O6         -8.9543   -0.7570   52.3743 O.2     1  ZINC000981048968   -0.5300
      7 N7         -8.3865    1.2413   53.1613 N.am    1  ZINC000981048968   -0.7300
      8 C8         -9.6137    1.3248   53.9571 C.3     1  ZINC000981048968    0.1500
      9 H9        -10.0035    0.3217   54.1302 H       1  ZINC000981048968    0.0900
     10 C10       -10.6553    2.1536   53.2025 C.3     1  ZINC000981048968   -0.1300
     11 C11       -11.9369    2.2409   54.0336 C.3     1  ZINC000981048968   -0.1200
     12 C12       -11.6298    2.9074   55.3762 C.3     1  ZINC000981048968   -0.1100
     13 C13       -10.5883    2.0787   56.1306 C.3     1  ZINC000981048968    0.1000
     14 H14       -10.9781    1.0756   56.3036 H       1  ZINC000981048968    0.0500
     15 N15       -10.2935    2.7186   57.4196 N.3     1  ZINC000981048968   -0.6800
     16 C16       -11.2699    2.3186   58.4416 C.3     1  ZINC000981048968    0.1500
     17 C17       -10.5987    1.4305   59.4573 C.2     1  ZINC000981048968    0.1800
     18 N18       -10.1101    1.8039   60.6019 N.2     1  ZINC000981048968   -0.3800
     19 O19        -9.6381    0.8522   61.1876 O.3     1  ZINC000981048968    0.0800
     20 C20        -9.7855   -0.2522   60.4498 C.2     1  ZINC000981048968    0.2100
     21 C21        -9.3358   -1.6431   60.8164 C.3     1  ZINC000981048968   -0.0800
     22 C22       -10.1552   -2.8162   60.2748 C.3     1  ZINC000981048968   -0.1600
     23 C23        -8.7693   -2.5201   59.6980 C.3     1  ZINC000981048968   -0.1500
     24 N24       -10.4006    0.1046   59.3481 N.2     1  ZINC000981048968   -0.4600
     25 C25        -9.3067    1.9914   55.2996 C.3     1  ZINC000981048968   -0.1300
     26 C26        -6.5855   -0.8926   50.6909 C.2     1  ZINC000981048968    0.0200
     27 O27        -5.3864   -0.5974   50.1798 O.3     1  ZINC000981048968   -0.1700
     28 H28        -3.0653    0.5559   49.6302 H       1  ZINC000981048968    0.0800
     29 H29        -3.7342    2.1642   49.9961 H       1  ZINC000981048968    0.0900
     30 H30        -2.9557    1.2106   51.2818 H       1  ZINC000981048968    0.0900
     31 H31        -5.6870    1.9045   52.2052 H       1  ZINC000981048968    0.1600
     32 H32        -7.7443    1.9679   53.1825 H       1  ZINC000981048968    0.4000
     33 H33       -10.2655    3.1567   53.0295 H       1  ZINC000981048968    0.0700
     34 H34       -10.8740    1.6787   52.2462 H       1  ZINC000981048968    0.0700
     35 H35       -12.6790    2.8313   53.4961 H       1  ZINC000981048968    0.0700
     36 H36       -12.3267    1.2378   54.2068 H       1  ZINC000981048968    0.0600
     37 H37       -11.2400    3.9105   55.2031 H       1  ZINC000981048968    0.0700
     38 H38       -12.5429    2.9696   55.9682 H       1  ZINC000981048968    0.0700
     39 H39        -9.3520    2.5126   57.7186 H       1  ZINC000981048968    0.3500
     40 H40       -11.6611    3.2068   58.9375 H       1  ZINC000981048968    0.1100
     41 H41       -12.0886    1.7759   57.9691 H       1  ZINC000981048968    0.0600
     42 H42        -8.8994   -1.7496   61.8095 H       1  ZINC000981048968    0.1500
     43 H43       -10.2581   -3.6947   60.9117 H       1  ZINC000981048968    0.1200
     44 H44       -11.0196   -2.5819   59.6535 H       1  ZINC000981048968    0.1100
     45 H45        -8.7220   -2.0911   58.6971 H       1  ZINC000981048968    0.1000
     46 H46        -7.9605   -3.2040   59.9554 H       1  ZINC000981048968    0.1200
     47 H47        -8.5646    1.4010   55.8370 H       1  ZINC000981048968    0.0700
     48 H48        -8.9168    2.9944   55.1264 H       1  ZINC000981048968    0.0800
     49 H49        -7.1914   -1.7471   50.4281 H       1  ZINC000981048968    0.2100
@<TRIPOS>BOND
     1     1     2    1
     2     1    28    1
     3     1    29    1
     4     1    30    1
     5     2    27    1
     6     2     3    2
     7     3     4    1
     8     3    31    1
     9     4     5    1
    10     4    26    2
    11     5     6    2
    12     5     7   am
    13     7     8    1
    14     7    32    1
    15     8     9    1
    16     8    25    1
    17     8    10    1
    18    10    11    1
    19    10    33    1
    20    10    34    1
    21    11    12    1
    22    11    35    1
    23    11    36    1
    24    12    13    1
    25    12    37    1
    26    12    38    1
    27    13    14    1
    28    13    15    1
    29    13    25    1
    30    15    16    1
    31    15    39    1
    32    16    17    1
    33    16    40    1
    34    16    41    1
    35    17    24    1
    36    17    18    2
    37    18    19    1
    38    19    20    1
    39    20    21    1
    40    20    24    2
    41    21    23    1
    42    21    22    1
    43    21    42    1
    44    22    23    1
    45    22    43    1
    46    22    44    1
    47    23    45    1
    48    23    46    1
    49    25    47    1
    50    25    48    1
    51    26    27    1
    52    26    49    1
@<TRIPOS>SUBSTRUCTURE
     1 ZINC000981048968        1 TEMP              0 ****  ****    0 ROOT


##########                                Name:    ZINC000281257088
##########                DOCK_Rotatable_Bonds:                   8
##########                         Heavy_Atoms:                  27
##########                    Molecular_Weight:             395.541
##########                DOCK_Rotatable_Bonds:                   8
##########                       Formal_Charge:          -0.0200005
##########                     HBond_Acceptors:                   7
##########                        HBond_Donors:                   1
##########                         Heavy_Atoms:                  27
##########                          Grid_Score:          -36.332508
##########                     Grid_vdw_energy:          -36.409187
##########                      Grid_es_energy:            0.076680
##########           Internal_energy_repulsive:           23.291546

@<TRIPOS>MOLECULE
ZINC000281257088
 57 58 1 0 0
SMALL
USER_CHARGES


@<TRIPOS>ATOM
      1 C1         -9.0000    3.0982   54.2352 C.3     1  ZINC000281257088   -0.0700
      2 C2         -8.2808    2.1017   53.3630 C.2     1  ZINC000281257088    0.1000
      3 N3         -7.1855    2.3267   52.6836 N.2     1  ZINC000281257088   -0.3000
      4 N4         -6.8413    1.1499   52.0060 N.pl3   1  ZINC000281257088   -0.3700
      5 C5         -5.6812    0.9677   51.1301 C.3     1  ZINC000281257088    0.1500
      6 C6         -5.2188    2.3288   50.6063 C.3     1  ZINC000281257088   -0.6400
      7 S7         -3.8001    2.1005   49.4992 S.o2    1  ZINC000281257088    2.4300
      8 C8         -2.6349    3.3434   50.1220 C.3     1  ZINC000281257088   -0.6500
      9 O9         -3.2506    0.8101   49.7277 O.2     1  ZINC000281257088   -0.9300
     10 O10        -4.1901    2.4652   48.1823 O.2     1  ZINC000281257088   -0.9300
     11 C11        -7.7669    0.2139   52.3028 C.2     1  ZINC000281257088    0.0900
     12 C12        -7.7918   -1.2040   51.7928 C.3     1  ZINC000281257088   -0.1000
     13 C13        -8.6656    0.7748   53.1447 C.2     1  ZINC000281257088   -0.2300
     14 C14        -9.8726    0.0929   53.7356 C.3     1  ZINC000281257088    0.1400
     15 N15       -10.9036   -0.0611   52.7007 N.3     1  ZINC000281257088   -0.6700
     16 C16       -12.2499    0.0426   53.2792 C.3     1  ZINC000281257088    0.1400
     17 H17       -12.2399    0.7650   54.0955 H       1  ZINC000281257088    0.0500
     18 C18       -12.6757   -1.3039   53.8053 C.ar    1  ZINC000281257088   -0.0800
     19 C19       -12.1555   -2.4582   53.2503 C.ar    1  ZINC000281257088   -0.0600
     20 C20       -12.5453   -3.6936   53.7319 C.ar    1  ZINC000281257088   -0.1600
     21 C21       -13.4567   -3.7748   54.7710 C.ar    1  ZINC000281257088    0.1000
     22 F22       -13.8381   -4.9818   55.2430 F       1  ZINC000281257088   -0.1400
     23 C23       -13.9767   -2.6180   55.3264 C.ar    1  ZINC000281257088   -0.1600
     24 C24       -13.5818   -1.3837   54.8463 C.ar    1  ZINC000281257088   -0.0900
     25 C25       -13.2338    0.5037   52.2020 C.3     1  ZINC000281257088   -0.0600
     26 C26       -12.6203    1.6620   51.4130 C.3     1  ZINC000281257088   -0.1400
     27 C27       -13.5323   -0.6586   51.2528 C.3     1  ZINC000281257088   -0.1400
     28 C28       -14.5328    0.9686   52.8633 C.3     1  ZINC000281257088   -0.1500
     29 H29        -8.6077    3.0419   55.2506 H       1  ZINC000281257088    0.0800
     30 H30        -8.8466    4.1030   53.8416 H       1  ZINC000281257088    0.0700
     31 H31       -10.0659    2.8704   54.2444 H       1  ZINC000281257088    0.0800
     32 H32        -4.8720    0.5004   51.6913 H       1  ZINC000281257088    0.1100
     33 H33        -5.9567    0.3297   50.2904 H       1  ZINC000281257088    0.1100
     34 H34        -6.0335    2.8036   50.0595 H       1  ZINC000281257088    0.1400
     35 H35        -4.9272    2.9610   51.4449 H       1  ZINC000281257088    0.1400
     36 H36        -2.4015    3.1320   51.1655 H       1  ZINC000281257088    0.1300
     37 H37        -1.7194    3.3114   49.5312 H       1  ZINC000281257088    0.1300
     38 H38        -3.0835    4.3336   50.0435 H       1  ZINC000281257088    0.1300
     39 H39        -7.2356   -1.8458   52.4761 H       1  ZINC000281257088    0.0800
     40 H40        -8.8238   -1.5491   51.7291 H       1  ZINC000281257088    0.0900
     41 H41        -7.3341   -1.2427   50.8043 H       1  ZINC000281257088    0.0700
     42 H42        -9.5868   -0.8891   54.1127 H       1  ZINC000281257088    0.0800
     43 H43       -10.2663    0.6958   54.5539 H       1  ZINC000281257088    0.0300
     44 H44       -10.7756    0.6118   51.9598 H       1  ZINC000281257088    0.3400
     45 H45       -11.4446   -2.3946   52.4398 H       1  ZINC000281257088    0.1400
     46 H46       -12.1393   -4.5953   53.2977 H       1  ZINC000281257088    0.1300
     47 H47       -14.6879   -2.6801   56.1367 H       1  ZINC000281257088    0.1300
     48 H48       -13.9870   -0.4811   55.2796 H       1  ZINC000281257088    0.1300
     49 H49       -11.6948    1.3307   50.9419 H       1  ZINC000281257088    0.0600
     50 H50       -13.3212    1.9904   50.6456 H       1  ZINC000281257088    0.0500
     51 H51       -12.4076    2.4899   52.0892 H       1  ZINC000281257088    0.0600
     52 H52       -13.9693   -1.4838   51.8150 H       1  ZINC000281257088    0.0500
     53 H53       -14.2332   -0.3302   50.4854 H       1  ZINC000281257088    0.0600
     54 H54       -12.6067   -0.9898   50.7818 H       1  ZINC000281257088    0.0600
     55 H55       -14.3334    1.8453   53.4793 H       1  ZINC000281257088    0.0500
     56 H56       -15.2613    1.2234   52.0935 H       1  ZINC000281257088    0.0600
     57 H57       -14.9292    0.1681   53.4880 H       1  ZINC000281257088    0.0600
@<TRIPOS>BOND
     1     1     2    1
     2     1    29    1
     3     1    30    1
     4     1    31    1
     5     2    13    1
     6     2     3    2
     7     3     4    1
     8     4     5    1
     9     4    11    1
    10     5     6    1
    11     5    32    1
    12     5    33    1
    13     6     7    1
    14     6    34    1
    15     6    35    1
    16     7     8    1
    17     7     9    2
    18     7    10    2
    19     8    36    1
    20     8    37    1
    21     8    38    1
    22    11    12    1
    23    11    13    2
    24    12    39    1
    25    12    40    1
    26    12    41    1
    27    13    14    1
    28    14    15    1
    29    14    42    1
    30    14    43    1
    31    15    16    1
    32    15    44    1
    33    16    17    1
    34    16    18    1
    35    16    25    1
    36    18    24   ar
    37    18    19   ar
    38    19    20   ar
    39    19    45    1
    40    20    21   ar
    41    20    46    1
    42    21    22    1
    43    21    23   ar
    44    23    24   ar
    45    23    47    1
    46    24    48    1
    47    25    26    1
    48    25    27    1
    49    25    28    1
    50    26    49    1
    51    26    50    1
    52    26    51    1
    53    27    52    1
    54    27    53    1
    55    27    54    1
    56    28    55    1
    57    28    56    1
    58    28    57    1
@<TRIPOS>SUBSTRUCTURE
     1 ZINC000281257088        1 TEMP              0 ****  ****    0 ROOT


##########                                Name:    ZINC000298969660
##########                DOCK_Rotatable_Bonds:                  10
##########                         Heavy_Atoms:                  29
##########                    Molecular_Weight:             397.474
##########                DOCK_Rotatable_Bonds:                  10
##########                       Formal_Charge:          -0.0100008
##########                     HBond_Acceptors:                   7
##########                        HBond_Donors:                   2
##########                         Heavy_Atoms:                  29
##########                          Grid_Score:          -36.326355
##########                     Grid_vdw_energy:          -36.445911
##########                      Grid_es_energy:            0.119558
##########           Internal_energy_repulsive:           16.921223

@<TRIPOS>MOLECULE
ZINC000298969660
 56 58 1 0 0
SMALL
USER_CHARGES


@<TRIPOS>ATOM
      1 C1        -10.4657    2.7254   52.6229 C.3     1  ZINC000298969660    0.0800
      2 N2         -9.6616    1.6710   53.2457 N.am    1  ZINC000298969660   -0.6300
      3 C3        -10.1519    0.9881   54.4453 C.3     1  ZINC000298969660    0.1400
      4 C4        -10.4149   -0.4842   54.1226 C.3     1  ZINC000298969660    0.0700
      5 H5         -9.4664   -1.0172   54.0578 H       1  ZINC000298969660    0.0500
      6 C6        -11.1524   -0.5898   52.7851 C.3     1  ZINC000298969660   -0.1500
      7 C7        -11.4652   -2.0616   52.4982 C.3     1  ZINC000298969660   -0.1200
      8 C8        -12.2831   -2.6342   53.6600 C.3     1  ZINC000298969660   -0.1600
      9 C9        -11.5020   -2.4496   54.9636 C.3     1  ZINC000298969660    0.0600
     10 O10       -11.2169   -1.0624   55.1545 O.3     1  ZINC000298969660   -0.3600
     11 C11        -8.4709    1.3292   52.7148 C.2     1  ZINC000298969660    0.7100
     12 O12        -7.8042    0.4531   53.2307 O.2     1  ZINC000298969660   -0.5400
     13 N13        -8.0191    1.9587   51.6119 N.am    1  ZINC000298969660   -0.6900
     14 C14        -6.7828    1.6038   51.0608 C.ar    1  ZINC000298969660    0.2000
     15 C15        -6.5168    0.2776   50.7459 C.ar    1  ZINC000298969660   -0.1800
     16 C16        -5.2960   -0.0729   50.2022 C.ar    1  ZINC000298969660   -0.0600
     17 C17        -4.3370    0.8944   49.9700 C.ar    1  ZINC000298969660   -0.2300
     18 C18        -4.5973    2.2215   50.2827 C.ar    1  ZINC000298969660    0.1500
     19 O19        -3.6530    3.1716   50.0542 O.3     1  ZINC000298969660   -0.2900
     20 C20        -2.9445    3.6690   51.1912 C.3     1  ZINC000298969660    0.0400
     21 C21        -1.4669    3.4413   51.0014 C.2     1  ZINC000298969660    0.5100
     22 O22        -0.6781    4.3223   51.2707 O.2     1  ZINC000298969660   -0.4900
     23 N23        -1.0222    2.2586   50.5325 N.am    1  ZINC000298969660   -0.6700
     24 C24         0.3498    2.0471   50.3563 C.ar    1  ZINC000298969660    0.1400
     25 C25         0.8597    1.8089   49.0868 C.ar    1  ZINC000298969660   -0.1400
     26 C26         2.2143    1.6006   48.9162 C.ar    1  ZINC000298969660   -0.1000
     27 C27         3.0625    1.6285   50.0079 C.ar    1  ZINC000298969660   -0.1300
     28 C28         2.5579    1.8650   51.2734 C.ar    1  ZINC000298969660   -0.1000
     29 C29         1.2051    2.0807   51.4499 C.ar    1  ZINC000298969660   -0.1200
     30 C30        -5.8228    2.5776   50.8230 C.ar    1  ZINC000298969660   -0.1500
     31 H31       -10.2008    3.6892   53.0579 H       1  ZINC000298969660    0.0600
     32 H32       -10.2713    2.7451   51.5505 H       1  ZINC000298969660    0.0700
     33 H33       -11.5232    2.5266   52.7969 H       1  ZINC000298969660    0.0800
     34 H34        -9.4038    1.0589   55.2350 H       1  ZINC000298969660    0.1000
     35 H35       -11.0773    1.4579   54.7784 H       1  ZINC000298969660    0.0900
     36 H36       -12.0821   -0.0231   52.8360 H       1  ZINC000298969660    0.0800
     37 H37       -10.5237   -0.1894   51.9899 H       1  ZINC000298969660    0.0700
     38 H38       -12.0394   -2.1392   51.5750 H       1  ZINC000298969660    0.0700
     39 H39       -10.5342   -2.6195   52.3981 H       1  ZINC000298969660    0.0600
     40 H40       -13.2357   -2.1088   53.7286 H       1  ZINC000298969660    0.0700
     41 H41       -12.4630   -3.6958   53.4903 H       1  ZINC000298969660    0.0700
     42 H42       -12.0977   -2.8166   55.7994 H       1  ZINC000298969660    0.0900
     43 H43       -10.5677   -3.0086   54.9098 H       1  ZINC000298969660    0.0400
     44 H44        -8.5510    2.6577   51.2004 H       1  ZINC000298969660    0.4100
     45 H45        -7.2648   -0.4803   50.9264 H       1  ZINC000298969660    0.1300
     46 H46        -5.0907   -1.1048   49.9586 H       1  ZINC000298969660    0.1300
     47 H47        -3.3836    0.6175   49.5449 H       1  ZINC000298969660    0.1300
     48 H48        -3.1366    4.7363   51.3007 H       1  ZINC000298969660    0.1000
     49 H49        -3.2808    3.1456   52.0863 H       1  ZINC000298969660    0.1000
     50 H50        -1.6531    1.5540   50.3173 H       1  ZINC000298969660    0.4100
     51 H51         0.1976    1.7863   48.2338 H       1  ZINC000298969660    0.1300
     52 H52         2.6114    1.4153   47.9291 H       1  ZINC000298969660    0.1300
     53 H53         4.1213    1.4649   49.8719 H       1  ZINC000298969660    0.1200
     54 H54         3.2228    1.8855   52.1242 H       1  ZINC000298969660    0.1300
     55 H55         0.8115    2.2653   52.4385 H       1  ZINC000298969660    0.1300
     56 H56        -6.0271    3.6096   51.0669 H       1  ZINC000298969660    0.1500
@<TRIPOS>BOND
     1     1     2    1
     2     1    31    1
     3     1    32    1
     4     1    33    1
     5     2     3    1
     6     2    11   am
     7     3     4    1
     8     3    34    1
     9     3    35    1
    10     4     5    1
    11     4    10    1
    12     4     6    1
    13     6     7    1
    14     6    36    1
    15     6    37    1
    16     7     8    1
    17     7    38    1
    18     7    39    1
    19     8     9    1
    20     8    40    1
    21     8    41    1
    22     9    10    1
    23     9    42    1
    24     9    43    1
    25    11    12    2
    26    11    13   am
    27    13    14    1
    28    13    44    1
    29    14    30   ar
    30    14    15   ar
    31    15    16   ar
    32    15    45    1
    33    16    17   ar
    34    16    46    1
    35    17    18   ar
    36    17    47    1
    37    18    19    1
    38    18    30   ar
    39    19    20    1
    40    20    21    1
    41    20    48    1
    42    20    49    1
    43    21    22    2
    44    21    23   am
    45    23    24    1
    46    23    50    1
    47    24    29   ar
    48    24    25   ar
    49    25    26   ar
    50    25    51    1
    51    26    27   ar
    52    26    52    1
    53    27    28   ar
    54    27    53    1
    55    28    29   ar
    56    28    54    1
    57    29    55    1
    58    30    56    1
@<TRIPOS>SUBSTRUCTURE
     1 ZINC000298969660        1 TEMP              0 ****  ****    0 ROOT


##########                                Name:    ZINC000654672208
##########                DOCK_Rotatable_Bonds:                   5
##########                         Heavy_Atoms:                  25
##########                    Molecular_Weight:             365.497
##########                DOCK_Rotatable_Bonds:                   5
##########                       Formal_Charge:           0.0100001
##########                     HBond_Acceptors:                   7
##########                        HBond_Donors:                   1
##########                         Heavy_Atoms:                  25
##########                          Grid_Score:          -36.308704
##########                     Grid_vdw_energy:          -34.828712
##########                      Grid_es_energy:           -1.479991
##########           Internal_energy_repulsive:           16.134562

@<TRIPOS>MOLECULE
ZINC000654672208
 52 54 1 0 0
SMALL
USER_CHARGES


@<TRIPOS>ATOM
      1 C1        -11.6935   -1.7991   51.7849 C.3     1  ZINC000654672208   -0.1100
      2 C2        -12.4765   -2.5398   52.8381 C.ar    1  ZINC000654672208   -0.1300
      3 C3        -11.8619   -3.4962   53.6237 C.ar    1  ZINC000654672208    0.1000
      4 N4        -12.5405   -4.1482   54.5476 N.ar    1  ZINC000654672208   -0.4700
      5 C5        -13.8214   -3.9177   54.7591 C.ar    1  ZINC000654672208    0.1200
      6 C6        -14.5506   -4.6906   55.8278 C.3     1  ZINC000654672208   -0.0900
      7 C7        -13.5437   -5.2215   56.8501 C.3     1  ZINC000654672208    0.1500
      8 N8        -12.7305   -4.1128   57.3556 N.am    1  ZINC000654672208   -0.7500
      9 C9        -11.5113   -4.3544   57.8770 C.2     1  ZINC000654672208    0.7100
     10 O10       -11.0865   -5.4925   57.9278 O.2     1  ZINC000654672208   -0.5800
     11 N11       -10.7631   -3.3344   58.3421 N.am    1  ZINC000654672208   -0.6300
     12 C12        -9.4324   -3.5826   58.9132 C.3     1  ZINC000654672208    0.1300
     13 C13        -9.3713   -2.9550   60.3092 C.3     1  ZINC000654672208   -0.1400
     14 C14        -9.7489   -1.4753   60.2165 C.3     1  ZINC000654672208   -0.1100
     15 C15       -11.1847   -1.3456   59.6943 C.3     1  ZINC000654672208   -0.0600
     16 C16       -11.5590    0.1382   59.6179 C.3     1  ZINC000654672208   -0.1200
     17 C17       -13.0891    0.2765   59.8263 C.3     1  ZINC000654672208   -0.5800
     18 S18       -13.3701   -0.9143   61.1982 S.o2    1  ZINC000654672208    2.3800
     19 O19       -12.9446   -0.3376   62.4252 O.2     1  ZINC000654672208   -0.9300
     20 O20       -14.6725   -1.4714   61.0869 O.2     1  ZINC000654672208   -0.9300
     21 C21       -12.1248   -2.1299   60.6257 C.3     1  ZINC000654672208   -0.5800
     22 C22       -11.2607   -1.9538   58.2818 C.3     1  ZINC000654672208    0.1200
     23 C23       -14.5029   -2.9752   54.0124 C.ar    1  ZINC000654672208   -0.1200
     24 C24       -15.9668   -2.7177   54.2610 C.3     1  ZINC000654672208   -0.1200
     25 C25       -13.8216   -2.2662   53.0351 C.ar    1  ZINC000654672208   -0.0800
     26 H26       -11.2571   -0.9006   52.2213 H       1  ZINC000654672208    0.0700
     27 H27       -10.8989   -2.4410   51.4044 H       1  ZINC000654672208    0.0700
     28 H28       -12.3580   -1.5200   50.9673 H       1  ZINC000654672208    0.0700
     29 H29       -10.8137   -3.7125   53.4790 H       1  ZINC000654672208    0.1600
     30 H30       -15.2643   -4.0352   56.3272 H       1  ZINC000654672208    0.0900
     31 H31       -15.0818   -5.5267   55.3731 H       1  ZINC000654672208    0.0900
     32 H32       -14.0779   -5.6874   57.6781 H       1  ZINC000654672208    0.0700
     33 H33       -12.8971   -5.9588   56.3742 H       1  ZINC000654672208    0.0700
     34 H34       -13.0694   -3.2049   57.3152 H       1  ZINC000654672208    0.3900
     35 H35        -9.2609   -4.6565   58.9872 H       1  ZINC000654672208    0.1000
     36 H36        -8.6714   -3.1318   58.2761 H       1  ZINC000654672208    0.0700
     37 H37       -10.0703   -3.4681   60.9696 H       1  ZINC000654672208    0.0700
     38 H38        -8.3603   -3.0482   60.7060 H       1  ZINC000654672208    0.0800
     39 H39        -9.6791   -1.0199   61.2044 H       1  ZINC000654672208    0.0800
     40 H40        -9.0669   -0.9684   59.5339 H       1  ZINC000654672208    0.0800
     41 H41       -11.0318    0.6897   60.3964 H       1  ZINC000654672208    0.1000
     42 H42       -11.2848    0.5355   58.6406 H       1  ZINC000654672208    0.1000
     43 H43       -13.3539    1.2903   60.1266 H       1  ZINC000654672208    0.1400
     44 H44       -13.6352   -0.0206   58.9310 H       1  ZINC000654672208    0.1400
     45 H45       -12.6102   -2.9379   60.0785 H       1  ZINC000654672208    0.1400
     46 H46       -11.5689   -2.5285   61.4742 H       1  ZINC000654672208    0.1400
     47 H47       -10.6471   -1.3675   57.5979 H       1  ZINC000654672208    0.0800
     48 H48       -12.2954   -1.9543   57.9392 H       1  ZINC000654672208    0.0800
     49 H49       -16.0756   -1.9332   55.0100 H       1  ZINC000654672208    0.0800
     50 H50       -16.4431   -2.4023   53.3327 H       1  ZINC000654672208    0.0700
     51 H51       -16.4405   -3.6313   54.6202 H       1  ZINC000654672208    0.0700
     52 H52       -14.3283   -1.5238   52.4363 H       1  ZINC000654672208    0.1300
@<TRIPOS>BOND
     1     1     2    1
     2     1    26    1
     3     1    27    1
     4     1    28    1
     5     2    25   ar
     6     2     3   ar
     7     3     4   ar
     8     3    29    1
     9     4     5   ar
    10     5     6    1
    11     5    23   ar
    12     6     7    1
    13     6    30    1
    14     6    31    1
    15     7     8    1
    16     7    32    1
    17     7    33    1
    18     8     9   am
    19     8    34    1
    20     9    10    2
    21     9    11   am
    22    11    22    1
    23    11    12    1
    24    12    13    1
    25    12    35    1
    26    12    36    1
    27    13    14    1
    28    13    37    1
    29    13    38    1
    30    14    15    1
    31    14    39    1
    32    14    40    1
    33    15    21    1
    34    15    16    1
    35    15    22    1
    36    16    17    1
    37    16    41    1
    38    16    42    1
    39    17    18    1
    40    17    43    1
    41    17    44    1
    42    18    19    2
    43    18    20    2
    44    18    21    1
    45    21    45    1
    46    21    46    1
    47    22    47    1
    48    22    48    1
    49    23    24    1
    50    23    25   ar
    51    24    49    1
    52    24    50    1
    53    24    51    1
    54    25    52    1
@<TRIPOS>SUBSTRUCTURE
     1 ZINC000654672208        1 TEMP              0 ****  ****    0 ROOT


##########                                Name:    ZINC000652498551
##########                DOCK_Rotatable_Bonds:                   6
##########                         Heavy_Atoms:                  23
##########                    Molecular_Weight:             388.277
##########                DOCK_Rotatable_Bonds:                   6
##########                       Formal_Charge:          -0.0400001
##########                     HBond_Acceptors:                   5
##########                        HBond_Donors:                   1
##########                         Heavy_Atoms:                  23
##########                          Grid_Score:          -36.283695
##########                     Grid_vdw_energy:          -30.085649
##########                      Grid_es_energy:           -6.198046
##########           Internal_energy_repulsive:           17.213831

@<TRIPOS>MOLECULE
ZINC000652498551
 46 47 1 0 0
SMALL
USER_CHARGES


@<TRIPOS>ATOM
      1 C1          2.6017    3.6826   47.1986 C.3     1  ZINC000652498551   -0.1300
      2 C2          2.7265    2.9925   48.5584 C.3     1  ZINC000652498551   -0.1300
      3 C3          2.8799    1.4842   48.3527 C.3     1  ZINC000652498551   -0.1300
      4 C4          3.9350    3.5261   49.2834 C.2     1  ZINC000652498551    0.5000
      5 O5          4.2793    4.6848   49.1240 O.co2   1  ZINC000652498551   -0.7000
      6 O6          4.5686    2.7991   50.0295 O.co2   1  ZINC000652498551   -0.6700
      7 C7          1.4709    3.2690   49.3878 C.3     1  ZINC000652498551   -0.0600
      8 H8          1.2333    4.3319   49.3450 H       1  ZINC000652498551    0.0700
      9 C9          1.7182    2.8584   50.8423 C.3     1  ZINC000652498551   -0.1500
     10 C10         0.4316    3.0658   51.6467 C.3     1  ZINC000652498551   -0.1400
     11 C11        -0.7011    2.2639   51.0023 C.3     1  ZINC000652498551   -0.0100
     12 N12        -0.9059    2.7211   49.6226 N.4     1  ZINC000652498551   -0.3800
     13 H13        -1.0992    3.7115   49.6228 H       1  ZINC000652498551    0.4200
     14 C14        -2.0432    2.0018   49.0336 C.3     1  ZINC000652498551    0.0000
     15 C15        -3.3499    2.6608   49.4801 C.3     1  ZINC000652498551    0.0200
     16 O16        -4.4472    1.7978   49.1746 O.3     1  ZINC000652498551   -0.3100
     17 C17        -5.4351    1.7037   50.1031 C.ar    1  ZINC000652498551    0.1600
     18 C18        -5.9691    2.8522   50.6675 C.ar    1  ZINC000652498551   -0.2300
     19 C19        -6.9750    2.7540   51.6130 C.ar    1  ZINC000652498551    0.1500
     20 F20        -7.4959    3.8723   52.1635 F       1  ZINC000652498551   -0.1200
     21 C21        -7.4478    1.5098   51.9944 C.ar    1  ZINC000652498551   -0.1600
     22 C22        -6.9151    0.3634   51.4321 C.ar    1  ZINC000652498551   -0.0300
     23 Br23       -7.5631   -1.3342   51.9552 Br      1  ZINC000652498551   -0.0100
     24 C24        -5.9144    0.4582   50.4833 C.ar    1  ZINC000652498551   -0.1300
     25 C25         0.2994    2.4604   48.8264 C.3     1  ZINC000652498551   -0.0200
     26 H26         1.7276    3.2966   46.6741 H       1  ZINC000652498551    0.0400
     27 H27         2.4924    4.7571   47.3451 H       1  ZINC000652498551    0.0500
     28 H28         3.4962    3.4856   46.6077 H       1  ZINC000652498551    0.0600
     29 H29         3.7745    1.2872   47.7618 H       1  ZINC000652498551    0.0700
     30 H30         2.9690    0.9925   49.3215 H       1  ZINC000652498551    0.0400
     31 H31         2.0058    1.0982   47.8283 H       1  ZINC000652498551    0.0500
     32 H32         2.0066    1.8081   50.8805 H       1  ZINC000652498551    0.1300
     33 H33         2.5144    3.4719   51.2638 H       1  ZINC000652498551    0.0800
     34 H34         0.5833    2.7236   52.6703 H       1  ZINC000652498551    0.1000
     35 H35         0.1716    4.1244   51.6509 H       1  ZINC000652498551    0.0700
     36 H36        -0.4402    1.2056   50.9989 H       1  ZINC000652498551    0.1300
     37 H37        -1.6186    2.4091   51.5726 H       1  ZINC000652498551    0.1100
     38 H38        -1.9717    2.0369   47.9466 H       1  ZINC000652498551    0.1400
     39 H39        -2.0279    0.9637   49.3654 H       1  ZINC000652498551    0.1500
     40 H40        -3.3174    2.8407   50.5547 H       1  ZINC000652498551    0.1100
     41 H41        -3.4763    3.6085   48.9567 H       1  ZINC000652498551    0.0900
     42 H42        -5.6001    3.8226   50.3698 H       1  ZINC000652498551    0.1500
     43 H43        -8.2330    1.4341   52.7319 H       1  ZINC000652498551    0.1500
     44 H44        -5.4994   -0.4371   50.0447 H       1  ZINC000652498551    0.1500
     45 H45         0.1201    2.7503   47.7912 H       1  ZINC000652498551    0.1100
     46 H46         0.5396    1.3981   48.8690 H       1  ZINC000652498551    0.1700
@<TRIPOS>BOND
     1     1     2    1
     2     1    26    1
     3     1    27    1
     4     1    28    1
     5     2     3    1
     6     2     4    1
     7     2     7    1
     8     3    29    1
     9     3    30    1
    10     3    31    1
    11     4     5   ar
    12     4     6   ar
    13     7     8    1
    14     7    25    1
    15     7     9    1
    16     9    10    1
    17     9    32    1
    18     9    33    1
    19    10    11    1
    20    10    34    1
    21    10    35    1
    22    11    12    1
    23    11    36    1
    24    11    37    1
    25    12    13    1
    26    12    14    1
    27    12    25    1
    28    14    15    1
    29    14    38    1
    30    14    39    1
    31    15    16    1
    32    15    40    1
    33    15    41    1
    34    16    17    1
    35    17    24   ar
    36    17    18   ar
    37    18    19   ar
    38    18    42    1
    39    19    20    1
    40    19    21   ar
    41    21    22   ar
    42    21    43    1
    43    22    23    1
    44    22    24   ar
    45    24    44    1
    46    25    45    1
    47    25    46    1
@<TRIPOS>SUBSTRUCTURE
     1 ZINC000652498551        1 TEMP              0 ****  ****    0 ROOT


##########                                Name:    ZINC000603906271
##########                DOCK_Rotatable_Bonds:                   8
##########                         Heavy_Atoms:                  29
##########                    Molecular_Weight:             391.473
##########                DOCK_Rotatable_Bonds:                   8
##########                       Formal_Charge:           0.0499998
##########                     HBond_Acceptors:                   7
##########                        HBond_Donors:                   3
##########                         Heavy_Atoms:                  29
##########                          Grid_Score:          -36.271347
##########                     Grid_vdw_energy:          -33.105106
##########                      Grid_es_energy:           -3.166240
##########           Internal_energy_repulsive:           25.260599

@<TRIPOS>MOLECULE
ZINC000603906271
 54 56 1 0 0
SMALL
USER_CHARGES


@<TRIPOS>ATOM
      1 C1        -13.7120   -1.4103   51.6090 C.3     1  ZINC000603906271   -0.1600
      2 C2        -12.2094   -1.4950   51.8845 C.3     1  ZINC000603906271    0.1300
      3 H3        -11.6971   -1.8627   50.9954 H       1  ZINC000603906271    0.1200
      4 N4        -11.7000   -0.1646   52.2266 N.am    1  ZINC000603906271   -0.7100
      5 C5        -10.3817    0.0179   52.4396 C.2     1  ZINC000603906271    0.5700
      6 O6         -9.6157   -0.9216   52.3495 O.2     1  ZINC000603906271   -0.5300
      7 C7         -9.8673    1.3607   52.7831 C.ar    1  ZINC000603906271   -0.1400
      8 C8         -8.4937    1.5741   52.9081 C.ar    1  ZINC000603906271   -0.0800
      9 C9         -8.0201    2.8296   53.2285 C.ar    1  ZINC000603906271   -0.1200
     10 C10        -8.9037    3.8760   53.4261 C.ar    1  ZINC000603906271   -0.0400
     11 C11        -8.3793    5.2446   53.7763 C.3     1  ZINC000603906271   -0.0400
     12 C12        -7.0707    5.1051   54.5568 C.3     1  ZINC000603906271   -0.1400
     13 C13        -8.1253    6.0372   52.4925 C.3     1  ZINC000603906271   -0.1500
     14 C14        -9.4092    5.9812   54.6351 C.3     1  ZINC000603906271   -0.1400
     15 C15       -10.2665    3.6712   53.3033 C.ar    1  ZINC000603906271   -0.1300
     16 C16       -10.7528    2.4218   52.9782 C.ar    1  ZINC000603906271   -0.0500
     17 C17       -11.9617   -2.4385   53.0332 C.2     1  ZINC000603906271    0.5100
     18 O18       -11.3423   -3.4655   52.8516 O.2     1  ZINC000603906271   -0.5100
     19 N19       -12.4284   -2.1414   54.2621 N.am    1  ZINC000603906271   -0.6700
     20 C20       -12.1983   -3.0176   55.3286 C.ar    1  ZINC000603906271    0.1300
     21 C21       -12.9537   -4.1772   55.4505 C.ar    1  ZINC000603906271   -0.1200
     22 C22       -12.7292   -5.0450   56.5027 C.ar    1  ZINC000603906271   -0.1000
     23 C23       -11.7539   -4.7642   57.4383 C.ar    1  ZINC000603906271   -0.0900
     24 C24       -10.9917   -3.6028   57.3241 C.ar    1  ZINC000603906271    0.0000
     25 C25        -9.9431   -3.2992   58.3295 C.2     1  ZINC000603906271    0.2700
     26 N26        -9.3475   -4.1783   59.1052 N.2     1  ZINC000603906271   -0.3000
     27 N27        -8.4320   -3.4647   59.8956 N.pl3   1  ZINC000603906271   -0.4800
     28 C28        -8.5402   -2.1733   59.5345 C.2     1  ZINC000603906271    0.2700
     29 N29        -9.4423   -2.0848   58.5931 N.2     1  ZINC000603906271   -0.5300
     30 C30       -11.2124   -2.7316   56.2612 C.ar    1  ZINC000603906271   -0.0800
     31 H31       -14.2243   -1.0427   52.4981 H       1  ZINC000603906271    0.0700
     32 H32       -13.8912   -0.7279   50.7781 H       1  ZINC000603906271    0.0800
     33 H33       -14.0910   -2.4001   51.3545 H       1  ZINC000603906271    0.0700
     34 H34       -12.3115    0.5848   52.2997 H       1  ZINC000603906271    0.4100
     35 H35        -7.8030    0.7582   52.7548 H       1  ZINC000603906271    0.1300
     36 H36        -6.9574    2.9962   53.3255 H       1  ZINC000603906271    0.1300
     37 H37        -6.3369    4.5804   53.9450 H       1  ZINC000603906271    0.0600
     38 H38        -6.6914    6.0951   54.8101 H       1  ZINC000603906271    0.0600
     39 H39        -7.2517    4.5404   55.4714 H       1  ZINC000603906271    0.0600
     40 H40        -9.0575    6.1367   51.9365 H       1  ZINC000603906271    0.0600
     41 H41        -7.7459    7.0273   52.7458 H       1  ZINC000603906271    0.0600
     42 H42        -7.3915    5.5126   51.8807 H       1  ZINC000603906271    0.0600
     43 H43        -9.5901    5.4164   55.5497 H       1  ZINC000603906271    0.0600
     44 H44        -9.0299    6.9711   54.8883 H       1  ZINC000603906271    0.0600
     45 H45       -10.3415    6.0805   54.0791 H       1  ZINC000603906271    0.0600
     46 H46       -10.9509    4.4922   53.4585 H       1  ZINC000603906271    0.1400
     47 H47       -11.8169    2.2634   52.8822 H       1  ZINC000603906271    0.1400
     48 H48       -12.9237   -1.3201   54.4072 H       1  ZINC000603906271    0.4200
     49 H49       -13.7183   -4.4011   54.7215 H       1  ZINC000603906271    0.1300
     50 H50       -13.3189   -5.9453   56.5932 H       1  ZINC000603906271    0.1400
     51 H51       -11.5816   -5.4444   58.2593 H       1  ZINC000603906271    0.1400
     52 H52        -7.8386   -3.8310   60.5698 H       1  ZINC000603906271    0.4400
     53 H53        -7.9749   -1.3513   59.9483 H       1  ZINC000603906271    0.2300
     54 H54       -10.6244   -1.8305   56.1684 H       1  ZINC000603906271    0.1500
@<TRIPOS>BOND
     1     1     2    1
     2     1    31    1
     3     1    32    1
     4     1    33    1
     5     2     3    1
     6     2     4    1
     7     2    17    1
     8     4     5   am
     9     4    34    1
    10     5     6    2
    11     5     7    1
    12     7    16   ar
    13     7     8   ar
    14     8     9   ar
    15     8    35    1
    16     9    10   ar
    17     9    36    1
    18    10    11    1
    19    10    15   ar
    20    11    12    1
    21    11    13    1
    22    11    14    1
    23    12    37    1
    24    12    38    1
    25    12    39    1
    26    13    40    1
    27    13    41    1
    28    13    42    1
    29    14    43    1
    30    14    44    1
    31    14    45    1
    32    15    16   ar
    33    15    46    1
    34    16    47    1
    35    17    18    2
    36    17    19   am
    37    19    20    1
    38    19    48    1
    39    20    30   ar
    40    20    21   ar
    41    21    22   ar
    42    21    49    1
    43    22    23   ar
    44    22    50    1
    45    23    24   ar
    46    23    51    1
    47    24    25    1
    48    24    30   ar
    49    25    29    1
    50    25    26    2
    51    26    27    1
    52    27    28    1
    53    27    52    1
    54    28    29    2
    55    28    53    1
    56    30    54    1
@<TRIPOS>SUBSTRUCTURE
     1 ZINC000603906271        1 TEMP              0 ****  ****    0 ROOT


##########                                Name:    ZINC000821442454
##########                DOCK_Rotatable_Bonds:                   6
##########                         Heavy_Atoms:                  26
##########                    Molecular_Weight:             398.873
##########                DOCK_Rotatable_Bonds:                   6
##########                       Formal_Charge:          -0.0399996
##########                     HBond_Acceptors:                  11
##########                        HBond_Donors:                   2
##########                         Heavy_Atoms:                  26
##########                          Grid_Score:          -36.258175
##########                     Grid_vdw_energy:          -33.999695
##########                      Grid_es_energy:           -2.258482
##########           Internal_energy_repulsive:            7.873218

@<TRIPOS>MOLECULE
ZINC000821442454
 45 47 1 0 0
SMALL
USER_CHARGES


@<TRIPOS>ATOM
      1 C1        -12.7957   -3.9716   53.9104 C.3     1  ZINC000821442454   -0.1500
      2 C2        -11.7601   -2.9169   54.3059 C.3     1  ZINC000821442454   -0.6300
      3 S3        -11.6642   -1.6488   53.0123 S.o2    1  ZINC000821442454    2.6000
      4 O4        -11.0566   -2.1762   51.8411 O.2     1  ZINC000821442454   -0.9500
      5 O5        -12.8800   -0.9165   52.9409 O.2     1  ZINC000821442454   -0.9500
      6 N6        -10.5618   -0.5549   53.5871 N.am    1  ZINC000821442454   -1.0000
      7 C7        -10.7965    0.1483   54.8557 C.3     1  ZINC000821442454    0.1100
      8 C8        -10.6759    1.6561   54.6132 C.3     1  ZINC000821442454   -0.1300
      9 C9         -9.3214    1.9583   53.9682 C.3     1  ZINC000821442454   -0.1100
     10 C10        -9.2261    1.2430   52.6187 C.3     1  ZINC000821442454   -0.1200
     11 H11       -10.0400    1.5736   51.9734 H       1  ZINC000821442454    0.1100
     12 C12        -7.9055    1.5678   51.9693 C.2     1  ZINC000821442454    0.5300
     13 O13        -7.8667    2.3146   51.0144 O.2     1  ZINC000821442454   -0.5100
     14 N14        -6.7677    1.0284   52.4496 N.am    1  ZINC000821442454   -0.6700
     15 C15        -5.5420    1.3298   51.8469 C.ar    1  ZINC000821442454    0.1800
     16 C16        -5.0682    0.5412   50.8061 C.ar    1  ZINC000821442454   -0.1200
     17 C17        -3.8602    0.8368   50.2099 C.ar    1  ZINC000821442454   -0.0500
     18 C18        -3.1142    1.9275   50.6519 C.ar    1  ZINC000821442454   -0.0300
     19 C19        -1.8141    2.2472   50.0112 C.2     1  ZINC000821442454    0.2200
     20 N20        -1.5059    2.0978   48.7381 N.2     1  ZINC000821442454   -0.2900
     21 N21        -0.2875    2.4865   48.5792 N.pl3   1  ZINC000821442454   -0.2200
     22 N22         0.1858    2.8775   49.7108 N.2     1  ZINC000821442454   -0.0400
     23 N23        -0.7267    2.7496   50.6132 N.2     1  ZINC000821442454   -0.2700
     24 C24        -3.5905    2.7181   51.6963 C.ar    1  ZINC000821442454   -0.0500
     25 C25        -4.8018    2.4223   52.2866 C.ar    1  ZINC000821442454   -0.0800
     26 Cl26       -5.3962    3.4063   53.5874 Cl      1  ZINC000821442454   -0.0500
     27 C27        -9.3275   -0.2736   52.8413 C.3     1  ZINC000821442454    0.1400
     28 H28       -13.7702   -3.4977   53.7931 H       1  ZINC000821442454    0.0700
     29 H29       -12.5011   -4.4346   52.9686 H       1  ZINC000821442454    0.0700
     30 H30       -12.8533   -4.7336   54.6876 H       1  ZINC000821442454    0.0800
     31 H31       -12.0547   -2.4539   55.2477 H       1  ZINC000821442454    0.1300
     32 H32       -10.7855   -3.3908   54.4230 H       1  ZINC000821442454    0.1300
     33 H33       -11.7961   -0.0840   55.2228 H       1  ZINC000821442454    0.1000
     34 H34       -10.0537   -0.1643   55.5896 H       1  ZINC000821442454    0.0700
     35 H35       -11.4761    1.9829   53.9491 H       1  ZINC000821442454    0.0700
     36 H36       -10.7524    2.1847   55.5634 H       1  ZINC000821442454    0.0800
     37 H37        -9.2229    3.0333   53.8171 H       1  ZINC000821442454    0.0700
     38 H38        -8.5220    1.6090   54.6216 H       1  ZINC000821442454    0.0800
     39 H39        -6.7987    0.4311   53.2132 H       1  ZINC000821442454    0.4200
     40 H40        -5.6463   -0.3044   50.4637 H       1  ZINC000821442454    0.1600
     41 H41        -3.4924    0.2230   49.4011 H       1  ZINC000821442454    0.1500
     42 H42         0.1970    2.4846   47.7389 H       1  ZINC000821442454    0.4800
     43 H43        -3.0138    3.5638   52.0404 H       1  ZINC000821442454    0.1500
     44 H44        -8.4639   -0.6181   53.4103 H       1  ZINC000821442454    0.0800
     45 H45        -9.3599   -0.7830   51.8782 H       1  ZINC000821442454    0.1000
@<TRIPOS>BOND
     1     1     2    1
     2     1    28    1
     3     1    29    1
     4     1    30    1
     5     2     3    1
     6     2    31    1
     7     2    32    1
     8     3     4    2
     9     3     5    2
    10     3     6   am
    11     6    27    1
    12     6     7    1
    13     7     8    1
    14     7    33    1
    15     7    34    1
    16     8     9    1
    17     8    35    1
    18     8    36    1
    19     9    10    1
    20     9    37    1
    21     9    38    1
    22    10    11    1
    23    10    12    1
    24    10    27    1
    25    12    13    2
    26    12    14   am
    27    14    15    1
    28    14    39    1
    29    15    25   ar
    30    15    16   ar
    31    16    17   ar
    32    16    40    1
    33    17    18   ar
    34    17    41    1
    35    18    19    1
    36    18    24   ar
    37    19    23    1
    38    19    20    2
    39    20    21    1
    40    21    22    1
    41    21    42    1
    42    22    23    2
    43    24    25   ar
    44    24    43    1
    45    25    26    1
    46    27    44    1
    47    27    45    1
@<TRIPOS>SUBSTRUCTURE
     1 ZINC000821442454        1 TEMP              0 ****  ****    0 ROOT


##########                                Name:    ZINC001061022329
##########                DOCK_Rotatable_Bonds:                   7
##########                         Heavy_Atoms:                  27
##########                    Molecular_Weight:             374.523
##########                DOCK_Rotatable_Bonds:                   7
##########                       Formal_Charge:           0.0800005
##########                     HBond_Acceptors:                   5
##########                        HBond_Donors:                   0
##########                         Heavy_Atoms:                  27
##########                          Grid_Score:          -36.256905
##########                     Grid_vdw_energy:          -35.527832
##########                      Grid_es_energy:           -0.729073
##########           Internal_energy_repulsive:           22.866123

@<TRIPOS>MOLECULE
ZINC001061022329
 61 64 1 0 0
SMALL
USER_CHARGES


@<TRIPOS>ATOM
      1 C1          0.9170    1.6811   49.3287 C.3     1  ZINC001061022329   -0.1500
      2 C2         -0.2546    2.5490   48.8648 C.3     1  ZINC001061022329   -0.1200
      3 C3         -1.5584    1.9992   49.4468 C.3     1  ZINC001061022329    0.0800
      4 H4         -1.6736    0.9547   49.1571 H       1  ZINC001061022329    0.0600
      5 C5         -1.5198    2.1039   50.9727 C.3     1  ZINC001061022329   -0.1800
      6 O6         -2.6611    2.7570   48.9450 O.3     1  ZINC001061022329   -0.3500
      7 C7         -3.9388    2.2633   49.3519 C.3     1  ZINC001061022329    0.0500
      8 C8         -4.5667    3.2325   50.3201 C.2     1  ZINC001061022329    0.5200
      9 O9         -3.9458    4.2054   50.6927 O.2     1  ZINC001061022329   -0.5100
     10 N10        -5.8182    3.0181   50.7720 N.am    1  ZINC001061022329   -0.6100
     11 C11        -6.4431    3.9602   51.7097 C.3     1  ZINC001061022329    0.1100
     12 C12        -6.8931    3.1895   52.9566 C.3     1  ZINC001061022329   -0.1200
     13 C13        -7.7493    2.0005   52.5274 C.3     1  ZINC001061022329   -0.0900
     14 C14        -8.4381    1.2846   53.6973 C.3     1  ZINC001061022329    0.1200
     15 N15        -9.6288    1.2277   52.8258 N.am    1  ZINC001061022329   -0.6400
     16 C16       -10.7132    0.4300   52.7602 C.2     1  ZINC001061022329    0.5400
     17 O17       -11.5578    0.6232   51.9116 O.2     1  ZINC001061022329   -0.5300
     18 C18       -10.8761   -0.7022   53.7415 C.3     1  ZINC001061022329   -0.0900
     19 H19        -9.9589   -0.8168   54.3191 H       1  ZINC001061022329    0.1000
     20 C20       -11.1652   -1.9983   52.9811 C.3     1  ZINC001061022329   -0.1000
     21 C21       -12.5244   -2.5584   53.4192 C.3     1  ZINC001061022329   -0.0600
     22 H22       -12.7739   -3.4551   52.8519 H       1  ZINC001061022329    0.0800
     23 C23       -13.5683   -1.4734   53.2001 C.2     1  ZINC001061022329   -0.1800
     24 C24       -13.3170   -0.3461   53.8615 C.2     1  ZINC001061022329   -0.1300
     25 C25       -12.0418   -0.3928   54.6896 C.3     1  ZINC001061022329   -0.0400
     26 H26       -11.8865    0.5500   55.2138 H       1  ZINC001061022329    0.0900
     27 C27       -12.1748   -1.5535   55.6852 C.3     1  ZINC001061022329   -0.1100
     28 C28       -12.4578   -2.8659   54.9216 C.3     1  ZINC001061022329   -0.1100
     29 C29        -9.1558    2.3953   52.0558 C.3     1  ZINC001061022329    0.1100
     30 C30        -7.0279    1.0544   51.5709 C.3     1  ZINC001061022329   -0.1100
     31 C31        -6.5789    1.8423   50.3289 C.3     1  ZINC001061022329    0.1100
     32 H32         0.9708    1.6950   50.4173 H       1  ZINC001061022329    0.0500
     33 H33         0.7690    0.6574   48.9851 H       1  ZINC001061022329    0.0600
     34 H34         1.8458    2.0728   48.9140 H       1  ZINC001061022329    0.0600
     35 H35        -0.1066    3.5728   49.2083 H       1  ZINC001061022329    0.0800
     36 H36        -0.3083    2.5352   47.7762 H       1  ZINC001061022329    0.0700
     37 H37        -2.4486    1.7122   51.3873 H       1  ZINC001061022329    0.0600
     38 H38        -0.6788    1.5258   51.3555 H       1  ZINC001061022329    0.0700
     39 H39        -1.4047    3.1483   51.2624 H       1  ZINC001061022329    0.0700
     40 H40        -4.5815    2.1548   48.4782 H       1  ZINC001061022329    0.0800
     41 H41        -3.8166    1.2942   49.8357 H       1  ZINC001061022329    0.0800
     42 H42        -5.7211    4.7257   51.9940 H       1  ZINC001061022329    0.0900
     43 H43        -7.3072    4.4273   51.2371 H       1  ZINC001061022329    0.0800
     44 H44        -6.0183    2.8316   53.4992 H       1  ZINC001061022329    0.0800
     45 H45        -7.4784    3.8468   53.5997 H       1  ZINC001061022329    0.0800
     46 H46        -8.0135    0.3072   53.9261 H       1  ZINC001061022329    0.0800
     47 H47        -8.5689    1.9105   54.5802 H       1  ZINC001061022329    0.0900
     48 H48       -11.1844   -1.7946   51.9104 H       1  ZINC001061022329    0.0700
     49 H49       -10.3849   -2.7280   53.1976 H       1  ZINC001061022329    0.0700
     50 H50       -14.4330   -1.6057   52.5667 H       1  ZINC001061022329    0.1200
     51 H51       -13.9585    0.5214   53.8142 H       1  ZINC001061022329    0.1200
     52 H52       -11.2455   -1.6604   56.2446 H       1  ZINC001061022329    0.0700
     53 H53       -12.9926   -1.3476   56.3758 H       1  ZINC001061022329    0.0700
     54 H54       -13.4123   -3.2779   55.2490 H       1  ZINC001061022329    0.0700
     55 H55       -11.6634   -3.5835   55.1262 H       1  ZINC001061022329    0.0700
     56 H56        -9.4998    3.3513   52.4508 H       1  ZINC001061022329    0.0900
     57 H57        -9.3015    2.3008   50.9797 H       1  ZINC001061022329    0.0800
     58 H58        -6.1574    0.6270   52.0685 H       1  ZINC001061022329    0.0800
     59 H59        -7.7050    0.2554   51.2689 H       1  ZINC001061022329    0.0800
     60 H60        -7.4537    2.1591   49.7612 H       1  ZINC001061022329    0.0700
     61 H61        -5.9449    1.2117   49.7056 H       1  ZINC001061022329    0.1000
@<TRIPOS>BOND
     1     1     2    1
     2     1    32    1
     3     1    33    1
     4     1    34    1
     5     2     3    1
     6     2    35    1
     7     2    36    1
     8     3     4    1
     9     3     5    1
    10     3     6    1
    11     5    37    1
    12     5    38    1
    13     5    39    1
    14     6     7    1
    15     7     8    1
    16     7    40    1
    17     7    41    1
    18     8     9    2
    19     8    10   am
    20    10    31    1
    21    10    11    1
    22    11    12    1
    23    11    42    1
    24    11    43    1
    25    12    13    1
    26    12    44    1
    27    12    45    1
    28    13    29    1
    29    13    14    1
    30    13    30    1
    31    14    15    1
    32    14    46    1
    33    14    47    1
    34    15    16   am
    35    15    29    1
    36    16    17    2
    37    16    18    1
    38    18    19    1
    39    18    25    1
    40    18    20    1
    41    20    21    1
    42    20    48    1
    43    20    49    1
    44    21    22    1
    45    21    28    1
    46    21    23    1
    47    23    24    2
    48    23    50    1
    49    24    25    1
    50    24    51    1
    51    25    26    1
    52    25    27    1
    53    27    28    1
    54    27    52    1
    55    27    53    1
    56    28    54    1
    57    28    55    1
    58    29    56    1
    59    29    57    1
    60    30    31    1
    61    30    58    1
    62    30    59    1
    63    31    60    1
    64    31    61    1
@<TRIPOS>SUBSTRUCTURE
     1 ZINC001061022329        1 TEMP              0 ****  ****    0 ROOT


##########                                Name:    ZINC000432253027
##########                DOCK_Rotatable_Bonds:                   8
##########                         Heavy_Atoms:                  26
##########                    Molecular_Weight:             401.436
##########                DOCK_Rotatable_Bonds:                   8
##########                       Formal_Charge:         1.19209e-07
##########                     HBond_Acceptors:                  11
##########                        HBond_Donors:                   0
##########                         Heavy_Atoms:                  26
##########                          Grid_Score:          -36.231941
##########                     Grid_vdw_energy:          -34.088230
##########                      Grid_es_energy:           -2.143712
##########           Internal_energy_repulsive:            7.390653

@<TRIPOS>MOLECULE
ZINC000432253027
 40 42 1 0 0
SMALL
USER_CHARGES


@<TRIPOS>ATOM
      1 C1         -6.8838    3.8880   53.0695 C.3     1  ZINC000432253027    0.0300
      2 O2         -7.5183    3.3360   51.9142 O.3     1  ZINC000432253027   -0.3100
      3 C3         -7.2762    2.0271   51.6440 C.ar    1  ZINC000432253027    0.1500
      4 C4         -6.1403    1.6609   50.9409 C.ar    1  ZINC000432253027   -0.2100
      5 C5         -5.8950    0.3285   50.6660 C.ar    1  ZINC000432253027   -0.0600
      6 C6         -6.7798   -0.6473   51.0903 C.ar    1  ZINC000432253027   -0.1600
      7 C7         -7.9157   -0.2987   51.7917 C.ar    1  ZINC000432253027   -0.0300
      8 C8         -8.1710    1.0420   52.0801 C.ar    1  ZINC000432253027   -0.0600
      9 C9         -9.3858    1.4220   52.8308 C.2     1  ZINC000432253027    0.1200
     10 N10        -9.8341    0.8225   53.8967 N.2     1  ZINC000432253027   -0.4600
     11 C11       -10.9334    1.3017   54.4331 C.2     1  ZINC000432253027    0.0800
     12 C12       -11.5512    0.6967   55.6673 C.3     1  ZINC000432253027   -0.0200
     13 S13       -11.0797   -1.0509   55.7851 S.3     1  ZINC000432253027   -0.1700
     14 C14       -10.7158   -1.2575   57.5502 C.3     1  ZINC000432253027   -0.0300
     15 C15       -10.4574   -2.7130   57.8429 C.2     1  ZINC000432253027    0.2100
     16 N16       -11.0276   -3.7411   57.2633 N.2     1  ZINC000432253027   -0.2700
     17 N17       -10.5416   -4.8131   57.7871 N.2     1  ZINC000432253027   -0.0500
     18 N18        -9.6762   -4.4958   58.6857 N.2     1  ZINC000432253027   -0.0700
     19 N19        -9.5919   -3.2096   58.7462 N.pl3   1  ZINC000432253027   -0.3100
     20 C20        -8.7244   -2.4355   59.6372 C.3     1  ZINC000432253027    0.0700
     21 C21        -9.5679   -1.7979   60.7430 C.3     1  ZINC000432253027    0.4300
     22 F22       -10.7425   -2.5373   60.9185 F       1  ZINC000432253027   -0.1500
     23 F23        -8.8401   -1.7882   61.9379 F       1  ZINC000432253027   -0.1700
     24 F24        -9.8924   -0.4853   60.3840 F       1  ZINC000432253027   -0.1700
     25 C25       -11.4697    2.3595   53.8166 C.2     1  ZINC000432253027   -0.2500
     26 S26       -10.4561    2.7634   52.4324 S.3     1  ZINC000432253027    0.1600
     27 H27        -7.1606    4.9376   53.1694 H       1  ZINC000432253027    0.1000
     28 H28        -7.2049    3.3416   53.9563 H       1  ZINC000432253027    0.0600
     29 H29        -5.8020    3.8060   52.9641 H       1  ZINC000432253027    0.0600
     30 H30        -5.4455    2.4172   50.6068 H       1  ZINC000432253027    0.1400
     31 H31        -5.0085    0.0476   50.1169 H       1  ZINC000432253027    0.1300
     32 H32        -6.5805   -1.6859   50.8713 H       1  ZINC000432253027    0.1300
     33 H33        -8.6040   -1.0632   52.1208 H       1  ZINC000432253027    0.1400
     34 H34       -11.1961    1.2291   56.5497 H       1  ZINC000432253027    0.1000
     35 H35       -12.6366    0.7769   55.6070 H       1  ZINC000432253027    0.1100
     36 H36        -9.8337   -0.6724   57.8102 H       1  ZINC000432253027    0.1100
     37 H37       -11.5662   -0.9138   58.1391 H       1  ZINC000432253027    0.1300
     38 H38        -7.9798   -3.0951   60.0829 H       1  ZINC000432253027    0.1500
     39 H39        -8.2224   -1.6539   59.0668 H       1  ZINC000432253027    0.1600
     40 H40       -12.3673    2.8794   54.1171 H       1  ZINC000432253027    0.1800
@<TRIPOS>BOND
     1     1     2    1
     2     1    27    1
     3     1    28    1
     4     1    29    1
     5     2     3    1
     6     3     8   ar
     7     3     4   ar
     8     4     5   ar
     9     4    30    1
    10     5     6   ar
    11     5    31    1
    12     6     7   ar
    13     6    32    1
    14     7     8   ar
    15     7    33    1
    16     8     9    1
    17     9    26    1
    18     9    10    2
    19    10    11    1
    20    11    12    1
    21    11    25    2
    22    12    13    1
    23    12    34    1
    24    12    35    1
    25    13    14    1
    26    14    15    1
    27    14    36    1
    28    14    37    1
    29    15    19    1
    30    15    16    2
    31    16    17    1
    32    17    18    2
    33    18    19    1
    34    19    20    1
    35    20    21    1
    36    20    38    1
    37    20    39    1
    38    21    22    1
    39    21    23    1
    40    21    24    1
    41    25    26    1
    42    25    40    1
@<TRIPOS>SUBSTRUCTURE
     1 ZINC000432253027        1 TEMP              0 ****  ****    0 ROOT


##########                                Name:    ZINC001109082135
##########                DOCK_Rotatable_Bonds:                   9
##########                         Heavy_Atoms:                  27
##########                    Molecular_Weight:             373.455
##########                DOCK_Rotatable_Bonds:                   9
##########                       Formal_Charge:          -0.0100003
##########                     HBond_Acceptors:                   8
##########                        HBond_Donors:                   3
##########                         Heavy_Atoms:                  27
##########                          Grid_Score:          -36.204231
##########                     Grid_vdw_energy:          -34.918186
##########                      Grid_es_energy:           -1.286047
##########           Internal_energy_repulsive:           19.244043

@<TRIPOS>MOLECULE
ZINC001109082135
 54 57 1 0 0
SMALL
USER_CHARGES


@<TRIPOS>ATOM
      1 C1         -9.3284   -1.4863   60.8142 C.3     1  ZINC001109082135   -0.1400
      2 C2         -9.2724   -2.9336   60.3213 C.3     1  ZINC001109082135   -0.1400
      3 C3        -10.2693   -3.1237   59.2072 C.2     1  ZINC001109082135    0.5100
      4 O4        -10.1248   -4.0277   58.4118 O.2     1  ZINC001109082135   -0.5400
      5 N5        -11.3216   -2.2891   59.0948 N.am    1  ZINC001109082135   -0.7200
      6 C6        -12.2898   -2.4727   58.0108 C.3     1  ZINC001109082135    0.1000
      7 C7        -11.6522   -2.0956   56.6985 C.2     1  ZINC001109082135    0.5100
      8 O8        -11.5858   -2.9083   55.8007 O.2     1  ZINC001109082135   -0.5300
      9 N9        -11.1556   -0.8550   56.5225 N.am    1  ZINC001109082135   -0.7100
     10 C10       -10.5372   -0.4878   55.2461 C.3     1  ZINC001109082135    0.1100
     11 H11       -10.1567   -1.3732   54.7368 H       1  ZINC001109082135    0.0900
     12 C12       -11.5483    0.2656   54.3475 C.3     1  ZINC001109082135   -0.1600
     13 C13       -10.8862    1.6621   54.1457 C.3     1  ZINC001109082135    0.0600
     14 H14       -11.2295    2.2246   53.2775 H       1  ZINC001109082135    0.1300
     15 C15       -11.0387    2.3838   55.5186 C.3     1  ZINC001109082135   -0.1200
     16 C16       -10.0370    1.6372   56.4333 C.3     1  ZINC001109082135   -0.1100
     17 C17        -9.3966    0.5507   55.4677 C.3     1  ZINC001109082135    0.0400
     18 H18        -8.4311    0.1533   55.7810 H       1  ZINC001109082135    0.1200
     19 N19        -9.4258    1.2924   54.1544 N.3     1  ZINC001109082135   -0.4800
     20 C20        -9.0881    0.3995   53.0379 C.3     1  ZINC001109082135    0.0800
     21 C21        -7.7828    0.8352   52.4234 C.2     1  ZINC001109082135    0.2000
     22 C22        -7.1585    0.0384   51.5121 C.2     1  ZINC001109082135   -0.2900
     23 C23        -5.9388    0.4763   50.9561 C.2     1  ZINC001109082135    0.5200
     24 O24        -5.3471   -0.2063   50.1364 O.2     1  ZINC001109082135   -0.5400
     25 N25        -5.4400    1.6675   51.3502 N.am    1  ZINC001109082135   -0.6300
     26 C26        -6.1071    2.4089   52.2564 C.2     1  ZINC001109082135    0.4300
     27 C27        -5.5367    3.7361   52.6856 C.3     1  ZINC001109082135   -0.1400
     28 C28        -4.0376    3.7970   52.9855 C.3     1  ZINC001109082135   -0.1400
     29 C29        -4.5905    4.4454   51.7148 C.3     1  ZINC001109082135   -0.1400
     30 N30        -7.2395    2.0054   52.7676 N.2     1  ZINC001109082135   -0.5300
     31 H31       -10.3305   -1.2662   61.1820 H       1  ZINC001109082135    0.0600
     32 H32        -8.6073   -1.3488   61.6200 H       1  ZINC001109082135    0.0600
     33 H33        -9.0870   -0.8128   59.9920 H       1  ZINC001109082135    0.0600
     34 H34        -8.2702   -3.1537   59.9534 H       1  ZINC001109082135    0.1000
     35 H35        -9.5137   -3.6071   61.1436 H       1  ZINC001109082135    0.1000
     36 H36       -11.4378   -1.5667   59.7318 H       1  ZINC001109082135    0.4100
     37 H37       -12.6027   -3.5163   57.9761 H       1  ZINC001109082135    0.1000
     38 H38       -13.1584   -1.8387   58.1882 H       1  ZINC001109082135    0.1000
     39 H39       -11.2076   -0.2054   57.2409 H       1  ZINC001109082135    0.4000
     40 H40       -11.6667   -0.2446   53.3916 H       1  ZINC001109082135    0.0800
     41 H41       -12.5095    0.3659   54.8518 H       1  ZINC001109082135    0.0800
     42 H42       -10.7676    3.4359   55.4311 H       1  ZINC001109082135    0.0700
     43 H43       -12.0556    2.2786   55.8966 H       1  ZINC001109082135    0.0700
     44 H44        -9.2696    2.3192   56.7992 H       1  ZINC001109082135    0.0700
     45 H45       -10.5575    1.1618   57.2647 H       1  ZINC001109082135    0.0700
     46 H46        -8.9934   -0.6222   53.4056 H       1  ZINC001109082135    0.1000
     47 H47        -9.8761    0.4436   52.2862 H       1  ZINC001109082135    0.0700
     48 H48        -7.5883   -0.9088   51.2217 H       1  ZINC001109082135    0.1600
     49 H49        -4.6023    1.9892   50.9816 H       1  ZINC001109082135    0.4200
     50 H50        -6.1969    4.3583   53.2898 H       1  ZINC001109082135    0.1300
     51 H51        -3.7113    4.4592   53.7874 H       1  ZINC001109082135    0.1100
     52 H52        -3.4640    2.8771   52.8725 H       1  ZINC001109082135    0.1100
     53 H53        -4.3805    3.9521   50.7657 H       1  ZINC001109082135    0.1100
     54 H54        -4.6279    5.5342   51.6807 H       1  ZINC001109082135    0.1100
@<TRIPOS>BOND
     1     1     2    1
     2     1    31    1
     3     1    32    1
     4     1    33    1
     5     2     3    1
     6     2    34    1
     7     2    35    1
     8     3     4    2
     9     3     5   am
    10     5     6    1
    11     5    36    1
    12     6     7    1
    13     6    37    1
    14     6    38    1
    15     7     8    2
    16     7     9   am
    17     9    10    1
    18     9    39    1
    19    10    11    1
    20    10    17    1
    21    10    12    1
    22    12    13    1
    23    12    40    1
    24    12    41    1
    25    13    14    1
    26    13    19    1
    27    13    15    1
    28    15    16    1
    29    15    42    1
    30    15    43    1
    31    16    17    1
    32    16    44    1
    33    16    45    1
    34    17    18    1
    35    17    19    1
    36    19    20    1
    37    20    21    1
    38    20    46    1
    39    20    47    1
    40    21    30    1
    41    21    22    2
    42    22    23    1
    43    22    48    1
    44    23    24    2
    45    23    25   am
    46    25    26    1
    47    25    49    1
    48    26    27    1
    49    26    30    2
    50    27    29    1
    51    27    28    1
    52    27    50    1
    53    28    29    1
    54    28    51    1
    55    28    52    1
    56    29    53    1
    57    29    54    1
@<TRIPOS>SUBSTRUCTURE
     1 ZINC001109082135        1 TEMP              0 ****  ****    0 ROOT


##########                                Name:    ZINC001139743874
##########                DOCK_Rotatable_Bonds:                   5
##########                         Heavy_Atoms:                  28
##########                    Molecular_Weight:             382.506
##########                DOCK_Rotatable_Bonds:                   5
##########                       Formal_Charge:           0.0199992
##########                     HBond_Acceptors:                   6
##########                        HBond_Donors:                   0
##########                         Heavy_Atoms:                  28
##########                          Grid_Score:          -36.183098
##########                     Grid_vdw_energy:          -35.700066
##########                      Grid_es_energy:           -0.483032
##########           Internal_energy_repulsive:           16.667870

@<TRIPOS>MOLECULE
ZINC001139743874
 58 61 1 0 0
SMALL
USER_CHARGES


@<TRIPOS>ATOM
      1 C1          0.9627    4.1192   49.0429 C.3     1  ZINC001139743874   -0.1800
      2 C2          0.4327    2.9006   49.8014 C.3     1  ZINC001139743874    0.1400
      3 C3          1.0262    1.6263   49.1976 C.3     1  ZINC001139743874   -0.1800
      4 C4          0.8345    3.0024   51.2742 C.3     1  ZINC001139743874   -0.1400
      5 O5         -1.0148    2.8572   49.6964 O.3     1  ZINC001139743874   -0.3600
      6 C6         -1.7121    3.6576   50.5246 C.2     1  ZINC001139743874    0.6500
      7 O7         -1.3907    4.8220   50.6575 O.2     1  ZINC001139743874   -0.5700
      8 N8         -2.7663    3.1675   51.2064 N.am    1  ZINC001139743874   -0.5900
      9 C9         -3.1578    1.8012   51.0621 C.3     1  ZINC001139743874    0.1000
     10 C10        -4.1162    1.4949   49.8762 C.3     1  ZINC001139743874   -0.1300
     11 C11        -5.1703    2.6337   49.7598 C.3     1  ZINC001139743874   -0.0900
     12 C12        -5.6181    3.1154   51.1006 C.3     1  ZINC001139743874   -0.0800
     13 C13        -7.1326    3.2689   51.2839 C.3     1  ZINC001139743874    0.0100
     14 N14        -7.0992    1.8942   51.8333 N.3     1  ZINC001139743874   -0.4700
     15 C15        -7.9470    1.7840   53.0279 C.3     1  ZINC001139743874    0.0600
     16 C16        -8.9836    0.7120   52.8110 C.ar    1  ZINC001139743874   -0.1200
     17 C17        -8.5880   -0.6082   52.6047 C.ar    1  ZINC001139743874    0.1500
     18 N18        -9.4626   -1.5660   52.4129 N.ar    1  ZINC001139743874   -0.4600
     19 C19       -10.7741   -1.3167   52.4075 C.ar    1  ZINC001139743874    0.0800
     20 C20       -11.7117   -2.3486   52.2015 C.ar    1  ZINC001139743874   -0.0400
     21 C21       -13.0381   -2.0265   52.2080 C.ar    1  ZINC001139743874   -0.1600
     22 C22       -13.4339   -0.7060   52.4142 C.ar    1  ZINC001139743874    0.1300
     23 N23       -12.5595    0.2518   52.6055 N.ar    1  ZINC001139743874   -0.4700
     24 C24       -11.2477    0.0024   52.6111 C.ar    1  ZINC001139743874    0.0800
     25 C25       -10.3106    1.0331   52.8222 C.ar    1  ZINC001139743874   -0.0400
     26 C26        -5.6750    2.0548   52.2063 C.3     1  ZINC001139743874    0.0000
     27 C27        -4.8236    4.3661   51.4891 C.3     1  ZINC001139743874   -0.1300
     28 C28        -3.5493    4.0411   52.1364 C.3     1  ZINC001139743874    0.1400
     29 H29         0.6765    4.0468   47.9936 H       1  ZINC001139743874    0.0900
     30 H30         0.5398    5.0270   49.4731 H       1  ZINC001139743874    0.0600
     31 H31         2.0493    4.1518   49.1217 H       1  ZINC001139743874    0.0700
     32 H32         2.1129    1.6589   49.2764 H       1  ZINC001139743874    0.0700
     33 H33         0.6488    0.7582   49.7380 H       1  ZINC001139743874    0.0600
     34 H34         0.7401    1.5539   48.1483 H       1  ZINC001139743874    0.0900
     35 H35         0.4115    3.9102   51.7043 H       1  ZINC001139743874    0.0700
     36 H36         0.4569    2.1343   51.8145 H       1  ZINC001139743874    0.0700
     37 H37         1.9211    3.0350   51.3530 H       1  ZINC001139743874    0.0800
     38 H38        -2.2573    1.1999   50.9370 H       1  ZINC001139743874    0.0700
     39 H39        -3.6458    1.4872   51.9848 H       1  ZINC001139743874    0.0900
     40 H40        -3.5427    1.4339   48.9512 H       1  ZINC001139743874    0.0700
     41 H41        -4.6233    0.5465   50.0539 H       1  ZINC001139743874    0.0800
     42 H42        -4.7327    3.4676   49.2110 H       1  ZINC001139743874    0.0600
     43 H43        -6.0346    2.2626   49.2090 H       1  ZINC001139743874    0.0700
     44 H44        -7.4126    4.0280   52.0143 H       1  ZINC001139743874    0.0700
     45 H45        -7.6826    3.3548   50.3466 H       1  ZINC001139743874    0.0900
     46 H46        -7.3304    1.5244   53.8884 H       1  ZINC001139743874    0.0600
     47 H47        -8.4429    2.7373   53.2106 H       1  ZINC001139743874    0.0900
     48 H48        -7.5350   -0.8482   52.6026 H       1  ZINC001139743874    0.1700
     49 H49       -11.3893   -3.3670   52.0425 H       1  ZINC001139743874    0.1500
     50 H50       -13.7811   -2.7949   52.0531 H       1  ZINC001139743874    0.1500
     51 H51       -14.4869   -0.4658   52.4160 H       1  ZINC001139743874    0.1700
     52 H52       -10.6333    2.0509   52.9847 H       1  ZINC001139743874    0.1400
     53 H53        -5.0652    1.1745   52.0031 H       1  ZINC001139743874    0.1000
     54 H54        -5.5254    2.4560   53.2086 H       1  ZINC001139743874    0.0700
     55 H55        -4.6258    4.9515   50.5912 H       1  ZINC001139743874    0.0700
     56 H56        -5.4228    4.9659   52.1742 H       1  ZINC001139743874    0.0800
     57 H57        -3.7365    3.5143   53.0721 H       1  ZINC001139743874    0.0800
     58 H58        -2.9941    4.9577   52.3352 H       1  ZINC001139743874    0.1000
@<TRIPOS>BOND
     1     1     2    1
     2     1    29    1
     3     1    30    1
     4     1    31    1
     5     2     3    1
     6     2     4    1
     7     2     5    1
     8     3    32    1
     9     3    33    1
    10     3    34    1
    11     4    35    1
    12     4    36    1
    13     4    37    1
    14     5     6    1
    15     6     7    2
    16     6     8   am
    17     8    28    1
    18     8     9    1
    19     9    10    1
    20     9    38    1
    21     9    39    1
    22    10    11    1
    23    10    40    1
    24    10    41    1
    25    11    12    1
    26    11    42    1
    27    11    43    1
    28    12    26    1
    29    12    13    1
    30    12    27    1
    31    13    14    1
    32    13    44    1
    33    13    45    1
    34    14    15    1
    35    14    26    1
    36    15    16    1
    37    15    46    1
    38    15    47    1
    39    16    25   ar
    40    16    17   ar
    41    17    18   ar
    42    17    48    1
    43    18    19   ar
    44    19    24   ar
    45    19    20   ar
    46    20    21   ar
    47    20    49    1
    48    21    22   ar
    49    21    50    1
    50    22    23   ar
    51    22    51    1
    52    23    24   ar
    53    24    25   ar
    54    25    52    1
    55    26    53    1
    56    26    54    1
    57    27    28    1
    58    27    55    1
    59    27    56    1
    60    28    57    1
    61    28    58    1
@<TRIPOS>SUBSTRUCTURE
     1 ZINC001139743874        1 TEMP              0 ****  ****    0 ROOT


##########                                Name:    ZINC000668548901
##########                DOCK_Rotatable_Bonds:                   9
##########                         Heavy_Atoms:                  26
##########                    Molecular_Weight:             374.464
##########                DOCK_Rotatable_Bonds:                   9
##########                       Formal_Charge:         3.53903e-07
##########                     HBond_Acceptors:                   8
##########                        HBond_Donors:                   3
##########                         Heavy_Atoms:                  26
##########                          Grid_Score:          -36.147095
##########                     Grid_vdw_energy:          -32.001637
##########                      Grid_es_energy:           -4.145458
##########           Internal_energy_repulsive:           12.162204

@<TRIPOS>MOLECULE
ZINC000668548901
 48 50 1 0 0
SMALL
USER_CHARGES


@<TRIPOS>ATOM
      1 O1         -9.8293    0.6305   53.4915 O.2     1  ZINC000668548901   -0.5700
      2 C2         -8.8181    0.6709   54.1654 C.2     1  ZINC000668548901    0.7100
      3 N3         -8.9038    0.8420   55.4995 N.am    1  ZINC000668548901   -0.6800
      4 C4        -10.1530    0.9785   56.1067 C.ar    1  ZINC000668548901    0.2200
      5 C5        -11.0316    1.9902   55.7157 C.ar    1  ZINC000668548901   -0.1700
      6 C6        -12.2573    2.0952   56.3376 C.ar    1  ZINC000668548901    0.1200
      7 N7        -12.6074    1.2548   57.2935 N.ar    1  ZINC000668548901   -0.4300
      8 C8        -11.8037    0.2801   57.6953 C.ar    1  ZINC000668548901    0.1100
      9 S9        -12.3281   -0.8105   58.9759 S.3     1  ZINC000668548901    0.0900
     10 C10       -12.3136   -2.3855   58.1860 C.ar    1  ZINC000668548901    0.0900
     11 C11       -11.3147   -3.3029   58.4956 C.ar    1  ZINC000668548901   -0.1500
     12 C12       -11.3157   -4.5358   57.8682 C.ar    1  ZINC000668548901   -0.0700
     13 C13       -12.3194   -4.8108   56.9489 C.ar    1  ZINC000668548901   -0.1700
     14 C14       -13.2800   -3.8532   56.6894 C.ar    1  ZINC000668548901    0.1000
     15 N15       -13.2571   -2.6875   57.3066 N.ar    1  ZINC000668548901   -0.4200
     16 C16       -10.5554    0.1062   57.1127 C.ar    1  ZINC000668548901   -0.1800
     17 N17        -7.6118    0.5391   53.5790 N.am    1  ZINC000668548901   -0.7200
     18 C18        -7.5187    0.3531   52.1289 C.3     1  ZINC000668548901    0.1700
     19 H19        -8.3640    0.8423   51.6448 H       1  ZINC000668548901    0.1000
     20 C20        -7.5400   -1.1419   51.8040 C.3     1  ZINC000668548901    0.0600
     21 O21        -8.7845   -1.7034   52.2259 O.3     1  ZINC000668548901   -0.5700
     22 C22        -6.2134    0.9673   51.6187 C.3     1  ZINC000668548901   -0.1300
     23 H23        -5.3667    0.4468   52.0661 H       1  ZINC000668548901    0.1000
     24 C24        -6.1623    2.4500   51.9995 C.3     1  ZINC000668548901   -0.1200
     25 C25        -4.8893    3.0718   51.4171 C.3     1  ZINC000668548901   -0.1600
     26 C26        -4.8753    2.8605   49.9008 C.3     1  ZINC000668548901    0.0600
     27 O27        -4.9562    1.4627   49.6152 O.3     1  ZINC000668548901   -0.3800
     28 C28        -6.1476    0.8359   50.0949 C.3     1  ZINC000668548901    0.0700
     29 H29        -8.0973    0.8702   56.0376 H       1  ZINC000668548901    0.4100
     30 H30       -10.7540    2.6830   54.9350 H       1  ZINC000668548901    0.1500
     31 H31       -12.9408    2.8762   56.0386 H       1  ZINC000668548901    0.1600
     32 H32       -10.5487   -3.0559   59.2156 H       1  ZINC000668548901    0.1400
     33 H33       -10.5528   -5.2679   58.0881 H       1  ZINC000668548901    0.1400
     34 H34       -12.3483   -5.7638   56.4416 H       1  ZINC000668548901    0.1400
     35 H35       -14.0622   -4.0628   55.9749 H       1  ZINC000668548901    0.1600
     36 H36        -9.9028   -0.6889   57.4420 H       1  ZINC000668548901    0.1400
     37 H37        -6.8052    0.5673   54.1171 H       1  ZINC000668548901    0.4000
     38 H38        -7.4239   -1.2818   50.7292 H       1  ZINC000668548901    0.0500
     39 H39        -6.7218   -1.6387   52.3255 H       1  ZINC000668548901    0.0600
     40 H40        -8.9547   -1.6149   53.1736 H       1  ZINC000668548901    0.3800
     41 H41        -7.0359    2.9609   51.5946 H       1  ZINC000668548901    0.0700
     42 H42        -6.1519    2.5475   53.0851 H       1  ZINC000668548901    0.0700
     43 H43        -4.8722    4.1395   51.6362 H       1  ZINC000668548901    0.0800
     44 H44        -4.0152    2.5942   51.8595 H       1  ZINC000668548901    0.0700
     45 H45        -5.7277    3.3727   49.4545 H       1  ZINC000668548901    0.0500
     46 H46        -3.9511    3.2634   49.4862 H       1  ZINC000668548901    0.1000
     47 H47        -6.1395   -0.2187   49.8194 H       1  ZINC000668548901    0.1000
     48 H48        -7.0172    1.3209   49.6517 H       1  ZINC000668548901    0.0500
@<TRIPOS>BOND
     1     1     2    2
     2     2     3   am
     3     2    17   am
     4     3     4    1
     5     3    29    1
     6     4    16   ar
     7     4     5   ar
     8     5     6   ar
     9     5    30    1
    10     6     7   ar
    11     6    31    1
    12     7     8   ar
    13     8     9    1
    14     8    16   ar
    15     9    10    1
    16    10    15   ar
    17    10    11   ar
    18    11    12   ar
    19    11    32    1
    20    12    13   ar
    21    12    33    1
    22    13    14   ar
    23    13    34    1
    24    14    15   ar
    25    14    35    1
    26    16    36    1
    27    17    18    1
    28    17    37    1
    29    18    19    1
    30    18    20    1
    31    18    22    1
    32    20    21    1
    33    20    38    1
    34    20    39    1
    35    21    40    1
    36    22    23    1
    37    22    28    1
    38    22    24    1
    39    24    25    1
    40    24    41    1
    41    24    42    1
    42    25    26    1
    43    25    43    1
    44    25    44    1
    45    26    27    1
    46    26    45    1
    47    26    46    1
    48    27    28    1
    49    28    47    1
    50    28    48    1
@<TRIPOS>SUBSTRUCTURE
     1 ZINC000668548901        1 TEMP              0 ****  ****    0 ROOT


##########                                Name:    ZINC000558052810
##########                DOCK_Rotatable_Bonds:                   9
##########                         Heavy_Atoms:                  30
##########                    Molecular_Weight:             424.524
##########                DOCK_Rotatable_Bonds:                   9
##########                       Formal_Charge:          -0.0200002
##########                     HBond_Acceptors:                   8
##########                        HBond_Donors:                   1
##########                         Heavy_Atoms:                  30
##########                          Grid_Score:          -36.136200
##########                     Grid_vdw_energy:          -35.258728
##########                      Grid_es_energy:           -0.877473
##########           Internal_energy_repulsive:           16.621113

@<TRIPOS>MOLECULE
ZINC000558052810
 54 56 1 0 0
SMALL
USER_CHARGES


@<TRIPOS>ATOM
      1 C1         -0.5692    1.0817   63.3981 C.3     1  ZINC000558052810   -0.1700
      2 C2         -1.7986    1.7500   62.7794 C.3     1  ZINC000558052810    0.1100
      3 N3         -1.5030    2.1311   61.3961 N.am    1  ZINC000558052810   -0.6100
      4 C4         -1.3333    3.5435   61.0458 C.3     1  ZINC000558052810    0.0700
      5 C5         -1.3871    1.1825   60.4459 C.2     1  ZINC000558052810    0.5600
      6 O6         -1.5276    0.0106   60.7366 O.2     1  ZINC000558052810   -0.5300
      7 C7         -1.0886    1.5672   59.0497 C.ar    1  ZINC000558052810   -0.1100
      8 C8          0.2346    1.7226   58.6337 C.ar    1  ZINC000558052810   -0.1100
      9 C9          0.5105    2.0818   57.3298 C.ar    1  ZINC000558052810   -0.1000
     10 C10        -0.5200    2.2893   56.4325 C.ar    1  ZINC000558052810   -0.1300
     11 C11        -1.8411    2.1376   56.8370 C.ar    1  ZINC000558052810    0.1400
     12 N12        -2.8806    2.3493   55.9250 N.am    1  ZINC000558052810   -0.6600
     13 C13        -3.3023    3.6022   55.6628 C.2     1  ZINC000558052810    0.5600
     14 O14        -2.7792    4.5488   56.2191 O.2     1  ZINC000558052810   -0.4800
     15 C15        -4.3972    3.8252   54.7021 C.ar    1  ZINC000558052810   -0.1900
     16 C16        -5.7239    3.5577   55.0588 C.ar    1  ZINC000558052810   -0.0200
     17 C17        -6.7153    3.7838   54.1204 C.ar    1  ZINC000558052810   -0.1900
     18 C18        -6.3728    4.2628   52.8684 C.ar    1  ZINC000558052810    0.1500
     19 N19        -5.1171    4.5086   52.5504 N.ar    1  ZINC000558052810   -0.4900
     20 C20        -4.1290    4.3161   53.4117 C.ar    1  ZINC000558052810    0.1600
     21 S21        -2.4688    4.6613   52.9327 S.3     1  ZINC000558052810    0.0600
     22 C22        -2.6419    4.5994   51.1321 C.3     1  ZINC000558052810   -0.0700
     23 C23        -2.5174    3.1723   50.6642 C.2     1  ZINC000558052810   -0.2000
     24 C24        -1.4054    2.3999   50.6298 C.2     1  ZINC000558052810   -0.0100
     25 C25        -0.0164    2.7983   51.0577 C.3     1  ZINC000558052810   -0.0800
     26 O26        -1.7840    1.2110   50.1399 O.3     1  ZINC000558052810    0.1000
     27 N27        -2.9662    1.1910   49.8860 N.2     1  ZINC000558052810   -0.3600
     28 C28        -3.5356    2.3277   50.1655 C.2     1  ZINC000558052810    0.0300
     29 C29        -4.9903    2.6773   49.9841 C.3     1  ZINC000558052810   -0.0800
     30 C30        -2.1286    1.7705   58.1424 C.ar    1  ZINC000558052810   -0.0700
     31 H31        -0.3112    0.1922   62.8233 H       1  ZINC000558052810    0.0600
     32 H32         0.2687    1.7788   63.3846 H       1  ZINC000558052810    0.0600
     33 H33        -0.7892    0.7981   64.4273 H       1  ZINC000558052810    0.0700
     34 H34        -2.6365    1.0528   62.7930 H       1  ZINC000558052810    0.0800
     35 H35        -2.0567    2.6394   63.3543 H       1  ZINC000558052810    0.0800
     36 H36        -0.3025    3.8433   61.2344 H       1  ZINC000558052810    0.0600
     37 H37        -1.5661    3.6866   59.9906 H       1  ZINC000558052810    0.0800
     38 H38        -2.0051    4.1514   61.6517 H       1  ZINC000558052810    0.0700
     39 H39         1.0426    1.5621   59.3321 H       1  ZINC000558052810    0.1400
     40 H40         1.5351    2.2016   57.0099 H       1  ZINC000558052810    0.1400
     41 H41        -0.2979    2.5707   55.4137 H       1  ZINC000558052810    0.1300
     42 H42        -3.2978    1.5943   55.4814 H       1  ZINC000558052810    0.4100
     43 H43        -5.9676    3.1837   56.0422 H       1  ZINC000558052810    0.1400
     44 H44        -7.7491    3.5873   54.3635 H       1  ZINC000558052810    0.1500
     45 H45        -7.1486    4.4384   52.1378 H       1  ZINC000558052810    0.1700
     46 H46        -3.6183    4.9913   50.8473 H       1  ZINC000558052810    0.1000
     47 H47        -1.8597    5.2025   50.6709 H       1  ZINC000558052810    0.1000
     48 H48         0.1193    2.5653   52.1138 H       1  ZINC000558052810    0.0900
     49 H49         0.7172    2.2495   50.4673 H       1  ZINC000558052810    0.0900
     50 H50         0.1188    3.8686   50.9016 H       1  ZINC000558052810    0.0900
     51 H51        -5.5399    2.4276   50.8918 H       1  ZINC000558052810    0.0800
     52 H52        -5.0852    3.7445   49.7838 H       1  ZINC000558052810    0.0800
     53 H53        -5.3980    2.1126   49.1456 H       1  ZINC000558052810    0.0800
     54 H54        -3.1544    1.6518   58.4586 H       1  ZINC000558052810    0.1500
@<TRIPOS>BOND
     1     1     2    1
     2     1    31    1
     3     1    32    1
     4     1    33    1
     5     2     3    1
     6     2    34    1
     7     2    35    1
     8     3     4    1
     9     3     5   am
    10     4    36    1
    11     4    37    1
    12     4    38    1
    13     5     6    2
    14     5     7    1
    15     7    30   ar
    16     7     8   ar
    17     8     9   ar
    18     8    39    1
    19     9    10   ar
    20     9    40    1
    21    10    11   ar
    22    10    41    1
    23    11    12    1
    24    11    30   ar
    25    12    13   am
    26    12    42    1
    27    13    14    2
    28    13    15    1
    29    15    20   ar
    30    15    16   ar
    31    16    17   ar
    32    16    43    1
    33    17    18   ar
    34    17    44    1
    35    18    19   ar
    36    18    45    1
    37    19    20   ar
    38    20    21    1
    39    21    22    1
    40    22    23    1
    41    22    46    1
    42    22    47    1
    43    23    28    1
    44    23    24    2
    45    24    25    1
    46    24    26    1
    47    25    48    1
    48    25    49    1
    49    25    50    1
    50    26    27    1
    51    27    28    2
    52    28    29    1
    53    29    51    1
    54    29    52    1
    55    29    53    1
    56    30    54    1
@<TRIPOS>SUBSTRUCTURE
     1 ZINC000558052810        1 TEMP              0 ****  ****    0 ROOT


##########                                Name:    ZINC000074782190
##########                DOCK_Rotatable_Bonds:                   9
##########                         Heavy_Atoms:                  25
##########                    Molecular_Weight:             341.453
##########                DOCK_Rotatable_Bonds:                   9
##########                       Formal_Charge:          -0.0200006
##########                     HBond_Acceptors:                   5
##########                        HBond_Donors:                   1
##########                         Heavy_Atoms:                  25
##########                          Grid_Score:          -36.100143
##########                     Grid_vdw_energy:          -34.170513
##########                      Grid_es_energy:           -1.929631
##########           Internal_energy_repulsive:           28.330017

@<TRIPOS>MOLECULE
ZINC000074782190
 52 53 1 0 0
SMALL
USER_CHARGES


@<TRIPOS>ATOM
      1 C1        -11.6189   -3.6259   56.5961 C.3     1  ZINC000074782190   -0.1100
      2 C2        -10.7312   -3.1343   57.7103 C.ar    1  ZINC000074782190   -0.1200
      3 C3         -9.9763   -4.0320   58.4397 C.ar    1  ZINC000074782190   -0.0800
      4 C4         -9.1618   -3.5817   59.4626 C.ar    1  ZINC000074782190   -0.1500
      5 C5         -9.1007   -2.2325   59.7574 C.ar    1  ZINC000074782190   -0.0900
      6 C6         -9.8534   -1.3304   59.0304 C.ar    1  ZINC000074782190   -0.2100
      7 C7        -10.6671   -1.7790   58.0005 C.ar    1  ZINC000074782190    0.1300
      8 O8        -11.4087   -0.8937   57.2839 O.3     1  ZINC000074782190   -0.3000
      9 C9        -10.7107    0.1955   56.6771 C.3     1  ZINC000074782190    0.0700
     10 H10        -9.6371    0.0521   56.7989 H       1  ZINC000074782190    0.0800
     11 C11       -11.1294    1.5059   57.3467 C.3     1  ZINC000074782190   -0.1800
     12 C12       -11.0517    0.2528   55.1867 C.3     1  ZINC000074782190    0.1400
     13 N13        -9.9532    0.8924   54.4586 N.am    1  ZINC000074782190   -0.7500
     14 C14       -10.2198    1.7880   53.4872 C.2     1  ZINC000074782190    0.7100
     15 O15       -11.3720    2.0649   53.2153 O.2     1  ZINC000074782190   -0.5900
     16 N16        -9.2092    2.3764   52.8173 N.am    1  ZINC000074782190   -0.6200
     17 C17        -7.8208    2.0428   53.1449 C.3     1  ZINC000074782190    0.1800
     18 C18        -7.3365    0.9504   52.2267 C.ar    1  ZINC000074782190   -0.1600
     19 C19        -6.3235    1.1988   51.3135 C.ar    1  ZINC000074782190   -0.0500
     20 C20        -5.9096    0.1634   50.4891 C.ar    1  ZINC000074782190   -0.1800
     21 C21        -6.5163   -1.0728   50.6044 C.ar    1  ZINC000074782190    0.1000
     22 N22        -7.4775   -1.2730   51.4850 N.ar    1  ZINC000074782190   -0.4900
     23 C23        -7.8927   -0.3135   52.2884 C.ar    1  ZINC000074782190    0.1100
     24 C24        -9.4990    3.3499   51.7615 C.3     1  ZINC000074782190    0.1300
     25 C25        -9.6607    4.7400   52.3799 C.3     1  ZINC000074782190   -0.1800
     26 C26        -8.3461    3.3700   50.7559 C.3     1  ZINC000074782190   -0.1800
     27 H27       -11.0568   -3.6386   55.6623 H       1  ZINC000074782190    0.0700
     28 H28       -11.9655   -4.6336   56.8254 H       1  ZINC000074782190    0.0600
     29 H29       -12.4767   -2.9610   56.4947 H       1  ZINC000074782190    0.0700
     30 H30       -10.0224   -5.0866   58.2112 H       1  ZINC000074782190    0.1300
     31 H31        -8.5729   -4.2853   60.0322 H       1  ZINC000074782190    0.1200
     32 H32        -8.4641   -1.8833   60.5569 H       1  ZINC000074782190    0.1200
     33 H33        -9.8055   -0.2765   59.2614 H       1  ZINC000074782190    0.1300
     34 H34       -12.2030    1.6493   57.2250 H       1  ZINC000074782190    0.0700
     35 H35       -10.8863    1.4652   58.4085 H       1  ZINC000074782190    0.0700
     36 H36       -10.5970    2.3368   56.8839 H       1  ZINC000074782190    0.0800
     37 H37       -11.1978   -0.7589   54.8083 H       1  ZINC000074782190    0.0800
     38 H38       -11.9659    0.8292   55.0450 H       1  ZINC000074782190    0.0900
     39 H39        -9.0339    0.6716   54.6756 H       1  ZINC000074782190    0.4100
     40 H40        -7.1954    2.9267   53.0196 H       1  ZINC000074782190    0.0900
     41 H41        -7.7634    1.7007   54.1783 H       1  ZINC000074782190    0.1000
     42 H42        -5.8678    2.1755   51.2455 H       1  ZINC000074782190    0.1400
     43 H43        -5.1234    0.3213   49.7658 H       1  ZINC000074782190    0.1300
     44 H44        -6.2000   -1.8842   49.9657 H       1  ZINC000074782190    0.1600
     45 H45        -8.6824   -0.5151   52.9970 H       1  ZINC000074782190    0.1500
     46 H46       -10.4208    3.0694   51.2519 H       1  ZINC000074782190    0.1000
     47 H47        -8.7116    5.0584   52.8111 H       1  ZINC000074782190    0.0600
     48 H48        -9.9649    5.4476   51.6087 H       1  ZINC000074782190    0.0700
     49 H49       -10.4207    4.7042   53.1604 H       1  ZINC000074782190    0.0600
     50 H50        -8.3041    2.4150   50.2321 H       1  ZINC000074782190    0.0700
     51 H51        -8.5059    4.1727   50.0359 H       1  ZINC000074782190    0.0700
     52 H52        -7.4068    3.5367   51.2833 H       1  ZINC000074782190    0.0700
@<TRIPOS>BOND
     1     1     2    1
     2     1    27    1
     3     1    28    1
     4     1    29    1
     5     2     7   ar
     6     2     3   ar
     7     3     4   ar
     8     3    30    1
     9     4     5   ar
    10     4    31    1
    11     5     6   ar
    12     5    32    1
    13     6     7   ar
    14     6    33    1
    15     7     8    1
    16     8     9    1
    17     9    10    1
    18     9    11    1
    19     9    12    1
    20    11    34    1
    21    11    35    1
    22    11    36    1
    23    12    13    1
    24    12    37    1
    25    12    38    1
    26    13    14   am
    27    13    39    1
    28    14    15    2
    29    14    16   am
    30    16    17    1
    31    16    24    1
    32    17    18    1
    33    17    40    1
    34    17    41    1
    35    18    23   ar
    36    18    19   ar
    37    19    20   ar
    38    19    42    1
    39    20    21   ar
    40    20    43    1
    41    21    22   ar
    42    21    44    1
    43    22    23   ar
    44    23    45    1
    45    24    25    1
    46    24    26    1
    47    24    46    1
    48    25    47    1
    49    25    48    1
    50    25    49    1
    51    26    50    1
    52    26    51    1
    53    26    52    1
@<TRIPOS>SUBSTRUCTURE
     1 ZINC000074782190        1 TEMP              0 ****  ****    0 ROOT


##########                                Name:    ZINC000442864105
##########                DOCK_Rotatable_Bonds:                   7
##########                         Heavy_Atoms:                  30
##########                    Molecular_Weight:              414.39
##########                DOCK_Rotatable_Bonds:                   7
##########                       Formal_Charge:           0.0200001
##########                     HBond_Acceptors:                  10
##########                        HBond_Donors:                   2
##########                         Heavy_Atoms:                  30
##########                          Grid_Score:          -36.047726
##########                     Grid_vdw_energy:          -34.179207
##########                      Grid_es_energy:           -1.868518
##########           Internal_energy_repulsive:           18.200155

@<TRIPOS>MOLECULE
ZINC000442864105
 47 50 1 0 0
SMALL
USER_CHARGES


@<TRIPOS>ATOM
      1 C1         -5.8659    4.3639   52.0575 C.3     1  ZINC000442864105    0.0800
      2 N2         -5.7558    3.0793   51.3619 N.pl3   1  ZINC000442864105   -0.4900
      3 C3         -4.9101    2.8207   50.3155 C.2     1  ZINC000442864105    0.0300
      4 C4         -5.0587    1.5500   49.9108 C.2     1  ZINC000442864105   -0.1900
      5 C5         -6.0827    0.9442   50.7668 C.ar    1  ZINC000442864105   -0.1600
      6 C6         -6.6607   -0.3250   50.8353 C.ar    1  ZINC000442864105   -0.0200
      7 C7         -7.6188   -0.5863   51.7727 C.ar    1  ZINC000442864105   -0.2100
      8 C8         -8.0250    0.4061   52.6635 C.ar    1  ZINC000442864105    0.2400
      9 N9         -9.0070    0.1225   53.6172 N.pl3   1  ZINC000442864105   -0.7400
     10 C10       -10.2548    0.8898   53.6342 C.3     1  ZINC000442864105    0.1100
     11 C11       -11.0971    0.5055   52.4451 C.2     1  ZINC000442864105    0.5100
     12 O12       -11.0717   -0.6325   52.0263 O.2     1  ZINC000442864105   -0.5100
     13 N13       -11.8787    1.4263   51.8470 N.am    1  ZINC000442864105   -0.6600
     14 C14       -12.6610    1.0694   50.7426 C.ar    1  ZINC000442864105    0.1600
     15 C15       -13.6042    0.0586   50.8557 C.ar    1  ZINC000442864105   -0.0700
     16 C16       -14.3755   -0.2921   49.7639 C.ar    1  ZINC000442864105   -0.1600
     17 C17       -15.3996   -1.3904   49.8892 C.3     1  ZINC000442864105    0.5100
     18 F18       -15.6459   -1.9445   48.6284 F       1  ZINC000442864105   -0.1700
     19 F19       -14.9161   -2.3830   50.7484 F       1  ZINC000442864105   -0.1700
     20 F20       -16.5876   -0.8634   50.4071 F       1  ZINC000442864105   -0.1700
     21 C21       -14.2105    0.3623   48.5569 C.ar    1  ZINC000442864105   -0.0600
     22 C22       -13.2728    1.3703   48.4349 C.ar    1  ZINC000442864105   -0.1100
     23 C23       -12.4985    1.7328   49.5267 C.ar    1  ZINC000442864105    0.1500
     24 N24       -11.5463    2.7554   49.4052 N.pl3   1  ZINC000442864105   -0.3300
     25 C25       -11.3900    3.5937   48.3626 C.2     1  ZINC000442864105    0.2800
     26 N26       -10.3959    4.3997   48.6360 N.2     1  ZINC000442864105   -0.5300
     27 C27        -9.8953    4.1093   49.8362 C.2     1  ZINC000442864105    0.2300
     28 N28       -10.5698    3.1133   50.3491 N.2     1  ZINC000442864105   -0.3400
     29 C29        -7.4631    1.6700   52.6111 C.ar    1  ZINC000442864105   -0.2100
     30 C30        -6.4827    1.9499   51.6659 C.ar    1  ZINC000442864105    0.1500
     31 H31        -5.1611    4.3886   52.8886 H       1  ZINC000442864105    0.0700
     32 H32        -5.6383    5.1734   51.3641 H       1  ZINC000442864105    0.0800
     33 H33        -6.8802    4.4855   52.4376 H       1  ZINC000442864105    0.0800
     34 H34        -4.2252    3.5337   49.8809 H       1  ZINC000442864105    0.1700
     35 H35        -4.5250    1.0656   49.1064 H       1  ZINC000442864105    0.1400
     36 H36        -6.3510   -1.0985   50.1480 H       1  ZINC000442864105    0.1200
     37 H37        -8.0651   -1.5684   51.8241 H       1  ZINC000442864105    0.1200
     38 H38        -8.8621   -0.5824   54.2676 H       1  ZINC000442864105    0.4100
     39 H39       -10.8017    0.6737   54.5519 H       1  ZINC000442864105    0.1000
     40 H40       -10.0271    1.9548   53.5891 H       1  ZINC000442864105    0.1000
     41 H41       -11.8991    2.3364   52.1820 H       1  ZINC000442864105    0.4300
     42 H42       -13.7356   -0.4544   51.7969 H       1  ZINC000442864105    0.1700
     43 H43       -14.8160    0.0846   47.7068 H       1  ZINC000442864105    0.1500
     44 H44       -13.1464    1.8790   47.4907 H       1  ZINC000442864105    0.1500
     45 H45       -11.9812    3.5993   47.4587 H       1  ZINC000442864105    0.2300
     46 H46        -9.0687    4.6173   50.3107 H       1  ZINC000442864105    0.2300
     47 H47        -7.7821    2.4344   53.3041 H       1  ZINC000442864105    0.1200
@<TRIPOS>BOND
     1     1     2    1
     2     1    31    1
     3     1    32    1
     4     1    33    1
     5     2    30    1
     6     2     3    1
     7     3     4    2
     8     3    34    1
     9     4     5    1
    10     4    35    1
    11     5    30   ar
    12     5     6   ar
    13     6     7   ar
    14     6    36    1
    15     7     8   ar
    16     7    37    1
    17     8     9    1
    18     8    29   ar
    19     9    10    1
    20     9    38    1
    21    10    11    1
    22    10    39    1
    23    10    40    1
    24    11    12    2
    25    11    13   am
    26    13    14    1
    27    13    41    1
    28    14    23   ar
    29    14    15   ar
    30    15    16   ar
    31    15    42    1
    32    16    17    1
    33    16    21   ar
    34    17    18    1
    35    17    19    1
    36    17    20    1
    37    21    22   ar
    38    21    43    1
    39    22    23   ar
    40    22    44    1
    41    23    24    1
    42    24    28    1
    43    24    25    1
    44    25    26    2
    45    25    45    1
    46    26    27    1
    47    27    28    2
    48    27    46    1
    49    29    30   ar
    50    29    47    1
@<TRIPOS>SUBSTRUCTURE
     1 ZINC000442864105        1 TEMP              0 ****  ****    0 ROOT


##########                                Name:    ZINC000465642058
##########                DOCK_Rotatable_Bonds:                  10
##########                         Heavy_Atoms:                  31
##########                    Molecular_Weight:             420.511
##########                DOCK_Rotatable_Bonds:                  10
##########                       Formal_Charge:          1.2666e-07
##########                     HBond_Acceptors:                   7
##########                        HBond_Donors:                   2
##########                         Heavy_Atoms:                  31
##########                          Grid_Score:          -35.979156
##########                     Grid_vdw_energy:          -35.425014
##########                      Grid_es_energy:           -0.554141
##########           Internal_energy_repulsive:           11.885206

@<TRIPOS>MOLECULE
ZINC000465642058
 59 62 1 0 0
SMALL
USER_CHARGES


@<TRIPOS>ATOM
      1 C1        -11.7208    3.6796   55.8973 C.3     1  ZINC000465642058   -0.1500
      2 C2        -10.7198    3.6031   54.7426 C.3     1  ZINC000465642058    0.0500
      3 O3        -11.1147    2.5701   53.8377 O.3     1  ZINC000465642058   -0.3000
      4 C4        -10.1216    1.8413   53.2614 C.ar    1  ZINC000465642058    0.1200
      5 C5         -9.0453    2.4803   52.6621 C.ar    1  ZINC000465642058   -0.1600
      6 C6         -8.0415    1.7373   52.0811 C.ar    1  ZINC000465642058   -0.1300
      7 C7         -8.0863    0.3495   52.0909 C.ar    1  ZINC000465642058    0.0700
      8 C8         -9.1713   -0.2861   52.6897 C.ar    1  ZINC000465642058   -0.0700
      9 C9        -10.1763    0.4553   53.2747 C.ar    1  ZINC000465642058   -0.1100
     10 C10       -11.3452   -0.2432   53.9202 C.3     1  ZINC000465642058    0.1900
     11 N11       -10.9493   -0.7390   55.2406 N.am    1  ZINC000465642058   -0.7300
     12 C12       -11.8690   -1.2905   56.0570 C.2     1  ZINC000465642058    0.7100
     13 O13       -13.0277   -1.3751   55.6981 O.2     1  ZINC000465642058   -0.5900
     14 N14       -11.5045   -1.7481   57.2711 N.am    1  ZINC000465642058   -0.6200
     15 C15       -12.5047   -2.3458   58.1592 C.3     1  ZINC000465642058    0.1900
     16 C16       -12.8990   -3.7012   57.6314 C.2     1  ZINC000465642058    0.0500
     17 N17       -12.0836   -4.6040   57.1498 N.2     1  ZINC000465642058   -0.2700
     18 N18       -12.8410   -5.7190   56.7683 N.pl3   1  ZINC000465642058   -0.4700
     19 C19       -14.1363   -5.4531   57.0378 C.2     1  ZINC000465642058    0.0600
     20 C20       -14.1994   -4.2137   57.5773 C.2     1  ZINC000465642058   -0.2600
     21 C21       -10.1082   -1.6477   57.7029 C.3     1  ZINC000465642058    0.1700
     22 C22       -10.0543   -1.0994   59.1056 C.ar    1  ZINC000465642058   -0.1100
     23 C23        -9.4902   -1.8502   60.1200 C.ar    1  ZINC000465642058   -0.0900
     24 C24        -9.4408   -1.3472   61.4066 C.ar    1  ZINC000465642058   -0.1200
     25 C25        -9.9553   -0.0934   61.6788 C.ar    1  ZINC000465642058   -0.1200
     26 C26       -10.5186    0.6578   60.6642 C.ar    1  ZINC000465642058   -0.1300
     27 C27       -10.5641    0.1566   59.3768 C.ar    1  ZINC000465642058   -0.1100
     28 O28        -6.9885   -0.1834   51.4851 O.3     1  ZINC000465642058   -0.3000
     29 C29        -6.3760    0.8158   50.6523 C.3     1  ZINC000465642058    0.0800
     30 H30        -6.7834    0.7791   49.6420 H       1  ZINC000465642058    0.0900
     31 C31        -4.8559    0.6438   50.6282 C.3     1  ZINC000465642058   -0.1500
     32 C32        -6.7712    2.1361   51.3550 C.3     1  ZINC000465642058   -0.1100
     33 H33       -11.7429    2.7249   56.4228 H       1  ZINC000465642058    0.0700
     34 H34       -11.4197    4.4676   56.5875 H       1  ZINC000465642058    0.0800
     35 H35       -12.7130    3.9009   55.5039 H       1  ZINC000465642058    0.0700
     36 H36       -10.6977    4.5577   54.2170 H       1  ZINC000465642058    0.0600
     37 H37        -9.7276    3.3818   55.1360 H       1  ZINC000465642058    0.0600
     38 H38        -8.9949    3.5591   52.6510 H       1  ZINC000465642058    0.1300
     39 H39        -9.2237   -1.3648   52.6997 H       1  ZINC000465642058    0.1400
     40 H40       -12.1728    0.4579   54.0284 H       1  ZINC000465642058    0.0700
     41 H41       -11.6576   -1.0806   53.2963 H       1  ZINC000465642058    0.0800
     42 H42       -10.0252   -0.6705   55.5274 H       1  ZINC000465642058    0.4000
     43 H43       -12.0846   -2.4535   59.1591 H       1  ZINC000465642058    0.1000
     44 H44       -13.3837   -1.7026   58.2015 H       1  ZINC000465642058    0.0900
     45 H45       -12.4954   -6.5375   56.3793 H       1  ZINC000465642058    0.4400
     46 H46       -14.9724   -6.1130   56.8588 H       1  ZINC000465642058    0.1800
     47 H47       -15.0961   -3.7073   57.9028 H       1  ZINC000465642058    0.1500
     48 H48        -9.6492   -2.6361   57.6813 H       1  ZINC000465642058    0.0900
     49 H49        -9.5672   -0.9812   57.0312 H       1  ZINC000465642058    0.0900
     50 H50        -9.0883   -2.8298   59.9073 H       1  ZINC000465642058    0.1300
     51 H51        -9.0007   -1.9341   62.1993 H       1  ZINC000465642058    0.1200
     52 H52        -9.9173    0.2993   62.6842 H       1  ZINC000465642058    0.1200
     53 H53       -10.9208    1.6373   60.8769 H       1  ZINC000465642058    0.1200
     54 H54       -11.0041    0.7434   58.5841 H       1  ZINC000465642058    0.1200
     55 H55        -4.6072   -0.3319   50.2110 H       1  ZINC000465642058    0.0700
     56 H56        -4.4115    1.4262   50.0129 H       1  ZINC000465642058    0.0800
     57 H57        -4.4661    0.7149   51.6437 H       1  ZINC000465642058    0.0700
     58 H58        -6.9697    2.9213   50.6256 H       1  ZINC000465642058    0.0900
     59 H59        -6.0009    2.4476   52.0604 H       1  ZINC000465642058    0.1000
@<TRIPOS>BOND
     1     1     2    1
     2     1    33    1
     3     1    34    1
     4     1    35    1
     5     2     3    1
     6     2    36    1
     7     2    37    1
     8     3     4    1
     9     4     9   ar
    10     4     5   ar
    11     5     6   ar
    12     5    38    1
    13     6    32    1
    14     6     7   ar
    15     7     8   ar
    16     7    28    1
    17     8     9   ar
    18     8    39    1
    19     9    10    1
    20    10    11    1
    21    10    40    1
    22    10    41    1
    23    11    12   am
    24    11    42    1
    25    12    13    2
    26    12    14   am
    27    14    15    1
    28    14    21    1
    29    15    16    1
    30    15    43    1
    31    15    44    1
    32    16    20    1
    33    16    17    2
    34    17    18    1
    35    18    19    1
    36    18    45    1
    37    19    20    2
    38    19    46    1
    39    20    47    1
    40    21    22    1
    41    21    48    1
    42    21    49    1
    43    22    27   ar
    44    22    23   ar
    45    23    24   ar
    46    23    50    1
    47    24    25   ar
    48    24    51    1
    49    25    26   ar
    50    25    52    1
    51    26    27   ar
    52    26    53    1
    53    27    54    1
    54    28    29    1
    55    29    30    1
    56    29    31    1
    57    29    32    1
    58    31    55    1
    59    31    56    1
    60    31    57    1
    61    32    58    1
    62    32    59    1
@<TRIPOS>SUBSTRUCTURE
     1 ZINC000465642058        1 TEMP              0 ****  ****    0 ROOT


##########                                Name:    ZINC000821214121
##########                DOCK_Rotatable_Bonds:                  10
##########                         Heavy_Atoms:                  23
##########                    Molecular_Weight:             338.434
##########                DOCK_Rotatable_Bonds:                  10
##########                       Formal_Charge:          0.00999954
##########                     HBond_Acceptors:                   9
##########                        HBond_Donors:                   3
##########                         Heavy_Atoms:                  23
##########                          Grid_Score:          -35.972370
##########                     Grid_vdw_energy:          -30.623041
##########                      Grid_es_energy:           -5.349329
##########           Internal_energy_repulsive:           12.317292

@<TRIPOS>MOLECULE
ZINC000821214121
 45 46 1 0 0
SMALL
USER_CHARGES


@<TRIPOS>ATOM
      1 C1         -6.1881    4.4110   51.5391 C.3     1  ZINC000821214121   -0.1500
      2 C2         -4.9137    3.6988   51.0813 C.3     1  ZINC000821214121    0.0500
      3 N3         -5.2554    2.3653   50.5683 N.3     1  ZINC000821214121   -0.5200
      4 C4         -4.2875    1.9277   49.5535 C.3     1  ZINC000821214121    0.0600
      5 C5         -2.8781    1.9542   50.1482 C.3     1  ZINC000821214121   -0.1200
      6 C6         -1.8742    1.4638   49.1029 C.3     1  ZINC000821214121    0.0800
      7 O7         -0.5592    1.4777   49.6620 O.3     1  ZINC000821214121   -0.5700
      8 C8         -5.3494    1.3888   51.6617 C.3     1  ZINC000821214121    0.0400
      9 C9         -6.7802    0.9409   51.8137 C.2     1  ZINC000821214121    0.5000
     10 O10        -7.6588    1.4941   51.1864 O.2     1  ZINC000821214121   -0.4800
     11 N11        -7.0837   -0.0743   52.6465 N.am    1  ZINC000821214121   -0.6300
     12 C12        -8.4068   -0.4896   52.7859 C.2     1  ZINC000821214121    0.0800
     13 C13        -9.3606    0.1508   53.5194 C.2     1  ZINC000821214121   -0.1000
     14 C14        -9.0950    1.3982   54.2754 C.2     1  ZINC000821214121    0.2900
     15 N15        -8.6573    1.4812   55.5187 N.2     1  ZINC000821214121   -0.3300
     16 N16        -8.5584    2.8536   55.8010 N.pl3   1  ZINC000821214121   -0.2900
     17 N17        -8.9313    3.4874   54.7422 N.2     1  ZINC000821214121    0.0200
     18 N18        -9.2487    2.6472   53.8223 N.2     1  ZINC000821214121   -0.2900
     19 C19       -10.6087   -0.4714   53.4958 C.2     1  ZINC000821214121   -0.0500
     20 C20       -11.7994    0.0752   54.2405 C.3     1  ZINC000821214121   -0.1000
     21 C21       -10.6706   -1.5813   52.7679 C.2     1  ZINC000821214121   -0.2400
     22 C22       -11.9053   -2.4268   52.5895 C.3     1  ZINC000821214121   -0.0800
     23 S23        -9.1081   -1.9177   52.0368 S.3     1  ZINC000821214121    0.2600
     24 H24        -6.9103    4.4241   50.7227 H       1  ZINC000821214121    0.0700
     25 H25        -6.6134    3.8822   52.3921 H       1  ZINC000821214121    0.0500
     26 H26        -5.9484    5.4342   51.8286 H       1  ZINC000821214121    0.0600
     27 H27        -4.4360    4.2800   50.2926 H       1  ZINC000821214121    0.0900
     28 H28        -4.2301    3.5996   51.9244 H       1  ZINC000821214121    0.0400
     29 H29        -4.5285    0.9135   49.2350 H       1  ZINC000821214121    0.0400
     30 H30        -4.3325    2.5985   48.6956 H       1  ZINC000821214121    0.0800
     31 H31        -2.6271    2.9730   50.4431 H       1  ZINC000821214121    0.0800
     32 H32        -2.8400    1.3033   51.0217 H       1  ZINC000821214121    0.0700
     33 H33        -2.1303    0.4481   48.8017 H       1  ZINC000821214121    0.0400
     34 H34        -1.9060    2.1197   48.2329 H       1  ZINC000821214121    0.0500
     35 H35         0.1317    1.1900   49.0496 H       1  ZINC000821214121    0.3800
     36 H36        -4.7212    0.5274   51.4346 H       1  ZINC000821214121    0.0700
     37 H37        -5.0122    1.8495   52.5903 H       1  ZINC000821214121    0.1200
     38 H38        -6.3813   -0.5160   53.1491 H       1  ZINC000821214121    0.4200
     39 H39        -8.2649    3.2500   56.6362 H       1  ZINC000821214121    0.4700
     40 H40       -12.3474    0.7619   53.5954 H       1  ZINC000821214121    0.0700
     41 H41       -12.4524   -0.7464   54.5347 H       1  ZINC000821214121    0.0700
     42 H42       -11.4594    0.6054   55.1301 H       1  ZINC000821214121    0.0900
     43 H43       -12.4640   -2.0755   51.7221 H       1  ZINC000821214121    0.0700
     44 H44       -11.6149   -3.4664   52.4378 H       1  ZINC000821214121    0.0700
     45 H45       -12.5298   -2.3501   53.4795 H       1  ZINC000821214121    0.0800
@<TRIPOS>BOND
     1     1     2    1
     2     1    24    1
     3     1    25    1
     4     1    26    1
     5     2     3    1
     6     2    27    1
     7     2    28    1
     8     3     4    1
     9     3     8    1
    10     4     5    1
    11     4    29    1
    12     4    30    1
    13     5     6    1
    14     5    31    1
    15     5    32    1
    16     6     7    1
    17     6    33    1
    18     6    34    1
    19     7    35    1
    20     8     9    1
    21     8    36    1
    22     8    37    1
    23     9    10    2
    24     9    11   am
    25    11    12    1
    26    11    38    1
    27    12    23    1
    28    12    13    2
    29    13    14    1
    30    13    19    1
    31    14    18    1
    32    14    15    2
    33    15    16    1
    34    16    17    1
    35    16    39    1
    36    17    18    2
    37    19    20    1
    38    19    21    2
    39    20    40    1
    40    20    41    1
    41    20    42    1
    42    21    22    1
    43    21    23    1
    44    22    43    1
    45    22    44    1
    46    22    45    1
@<TRIPOS>SUBSTRUCTURE
     1 ZINC000821214121        1 TEMP              0 ****  ****    0 ROOT


##########                                Name:    ZINC000437192871
##########                DOCK_Rotatable_Bonds:                   9
##########                         Heavy_Atoms:                  28
##########                    Molecular_Weight:             423.298
##########                DOCK_Rotatable_Bonds:                   9
##########                       Formal_Charge:         -8.9407e-08
##########                     HBond_Acceptors:                   9
##########                        HBond_Donors:                   1
##########                         Heavy_Atoms:                  28
##########                          Grid_Score:          -35.971222
##########                     Grid_vdw_energy:          -36.415211
##########                      Grid_es_energy:            0.443989
##########           Internal_energy_repulsive:           13.929181

@<TRIPOS>MOLECULE
ZINC000437192871
 48 50 1 0 0
SMALL
USER_CHARGES


@<TRIPOS>ATOM
      1 C1         -9.3775    1.0538   64.5670 C.3     1  ZINC000437192871   -0.1700
      2 C2         -8.5815    0.7776   63.2897 C.3     1  ZINC000437192871    0.1300
      3 N3         -9.3896    1.1403   62.1227 N.pl3   1  ZINC000437192871   -0.3600
      4 C4        -10.2067    0.3151   61.4354 C.2     1  ZINC000437192871    0.0700
      5 C5        -10.7677    1.0308   60.4333 C.2     1  ZINC000437192871   -0.2700
      6 C6        -11.7489    0.5113   59.4144 C.3     1  ZINC000437192871    0.1900
      7 N7        -11.5986   -0.9406   59.2877 N.am    1  ZINC000437192871   -0.6000
      8 C8        -12.4064   -1.8359   60.1195 C.3     1  ZINC000437192871    0.1100
      9 C9        -13.7067   -2.1764   59.3885 C.3     1  ZINC000437192871    0.0600
     10 O10       -14.5797   -2.8820   60.2727 O.3     1  ZINC000437192871   -0.5600
     11 C11       -10.7173   -1.4524   58.4058 C.2     1  ZINC000437192871    0.6000
     12 O12       -10.0468   -0.7091   57.7151 O.2     1  ZINC000437192871   -0.5000
     13 C13       -10.5662   -2.9118   58.2785 C.2     1  ZINC000437192871   -0.2200
     14 C14        -9.8088   -3.7636   59.0422 C.2     1  ZINC000437192871    0.0100
     15 C15        -8.9377   -3.3898   60.2138 C.3     1  ZINC000437192871   -0.0800
     16 O16        -9.9950   -4.9883   58.5447 O.3     1  ZINC000437192871    0.1100
     17 N17       -10.7456   -5.0128   57.6005 N.2     1  ZINC000437192871   -0.3200
     18 C18       -11.1983   -3.8219   57.3003 C.2     1  ZINC000437192871    0.0800
     19 C19       -12.1356   -3.4623   56.2091 C.ar    1  ZINC000437192871   -0.0200
     20 C20       -11.7881   -2.4793   55.2844 C.ar    1  ZINC000437192871   -0.0700
     21 C21       -12.6635   -2.1486   54.2703 C.ar    1  ZINC000437192871   -0.1000
     22 C22       -13.8858   -2.7913   54.1699 C.ar    1  ZINC000437192871   -0.0100
     23 Cl23      -14.9818   -2.3702   52.8911 Cl      1  ZINC000437192871   -0.0500
     24 C24       -14.2369   -3.7686   55.0853 C.ar    1  ZINC000437192871   -0.1100
     25 C25       -13.3662   -4.1111   56.1008 C.ar    1  ZINC000437192871    0.0000
     26 Cl26      -13.8069   -5.3372   57.2481 Cl      1  ZINC000437192871   -0.0300
     27 C27       -10.2765    2.3381   60.5109 C.2     1  ZINC000437192871    0.0600
     28 N28        -9.4549    2.4064   61.5269 N.2     1  ZINC000437192871   -0.2900
     29 H29        -8.7763    0.7840   65.4352 H       1  ZINC000437192871    0.0800
     30 H30        -9.6307    2.1129   64.6153 H       1  ZINC000437192871    0.0600
     31 H31       -10.2924    0.4614   64.5602 H       1  ZINC000437192871    0.0700
     32 H32        -7.6666    1.3700   63.2965 H       1  ZINC000437192871    0.1000
     33 H33        -8.3284   -0.2815   63.2413 H       1  ZINC000437192871    0.0900
     34 H34       -10.3814   -0.7294   61.6470 H       1  ZINC000437192871    0.1600
     35 H35       -12.7640    0.7447   59.7356 H       1  ZINC000437192871    0.0900
     36 H36       -11.5553    0.9821   58.4506 H       1  ZINC000437192871    0.0800
     37 H37       -11.8489   -2.7520   60.3148 H       1  ZINC000437192871    0.1000
     38 H38       -12.6387   -1.3436   61.0638 H       1  ZINC000437192871    0.1000
     39 H39       -14.1896   -1.2565   59.0586 H       1  ZINC000437192871    0.0600
     40 H40       -13.4842   -2.8004   58.5228 H       1  ZINC000437192871    0.0500
     41 H41       -15.4201   -3.1418   59.8712 H       1  ZINC000437192871    0.3800
     42 H42        -9.4966   -3.5249   61.1398 H       1  ZINC000437192871    0.1000
     43 H43        -8.0533   -4.0269   60.2269 H       1  ZINC000437192871    0.0900
     44 H44        -8.6332   -2.3472   60.1221 H       1  ZINC000437192871    0.0900
     45 H45       -10.8352   -1.9769   55.3615 H       1  ZINC000437192871    0.1600
     46 H46       -12.3949   -1.3866   53.5536 H       1  ZINC000437192871    0.1500
     47 H47       -15.1915   -4.2669   55.0026 H       1  ZINC000437192871    0.1500
     48 H48       -10.5347    3.1518   59.8495 H       1  ZINC000437192871    0.1800
@<TRIPOS>BOND
     1     1     2    1
     2     1    29    1
     3     1    30    1
     4     1    31    1
     5     2     3    1
     6     2    32    1
     7     2    33    1
     8     3    28    1
     9     3     4    1
    10     4     5    2
    11     4    34    1
    12     5     6    1
    13     5    27    1
    14     6     7    1
    15     6    35    1
    16     6    36    1
    17     7     8    1
    18     7    11   am
    19     8     9    1
    20     8    37    1
    21     8    38    1
    22     9    10    1
    23     9    39    1
    24     9    40    1
    25    10    41    1
    26    11    12    2
    27    11    13    1
    28    13    18    1
    29    13    14    2
    30    14    15    1
    31    14    16    1
    32    15    42    1
    33    15    43    1
    34    15    44    1
    35    16    17    1
    36    17    18    2
    37    18    19    1
    38    19    25   ar
    39    19    20   ar
    40    20    21   ar
    41    20    45    1
    42    21    22   ar
    43    21    46    1
    44    22    23    1
    45    22    24   ar
    46    24    25   ar
    47    24    47    1
    48    25    26    1
    49    27    28    2
    50    27    48    1
@<TRIPOS>SUBSTRUCTURE
     1 ZINC000437192871        1 TEMP              0 ****  ****    0 ROOT


##########                                Name:    ZINC000464867530
##########                DOCK_Rotatable_Bonds:                   8
##########                         Heavy_Atoms:                  30
##########                    Molecular_Weight:              422.49
##########                DOCK_Rotatable_Bonds:                   8
##########                       Formal_Charge:         -0.00999994
##########                     HBond_Acceptors:                   7
##########                        HBond_Donors:                   0
##########                         Heavy_Atoms:                  30
##########                          Grid_Score:          -35.966209
##########                     Grid_vdw_energy:          -35.712860
##########                      Grid_es_energy:           -0.253350
##########           Internal_energy_repulsive:           34.947109

@<TRIPOS>MOLECULE
ZINC000464867530
 59 62 1 0 0
SMALL
USER_CHARGES


@<TRIPOS>ATOM
      1 C1         -6.5668    0.7364   51.4253 C.3     1  ZINC000464867530   -0.1500
      2 C2         -7.4619   -0.2024   52.2367 C.3     1  ZINC000464867530   -0.1400
      3 C3         -8.8553    0.4145   52.3750 C.3     1  ZINC000464867530    0.0900
      4 N4         -9.0225    0.9438   53.7308 N.am    1  ZINC000464867530   -0.6100
      5 C5         -8.1346    2.0019   54.2187 C.3     1  ZINC000464867530    0.0700
      6 C6         -8.5951    3.3509   53.6625 C.3     1  ZINC000464867530    0.4300
      7 F7         -7.8046    4.3717   54.2013 F       1  ZINC000464867530   -0.1700
      8 F8         -8.4680    3.3487   52.2693 F       1  ZINC000464867530   -0.1800
      9 F9         -9.9335    3.5655   54.0085 F       1  ZINC000464867530   -0.1800
     10 C10        -9.9933    0.4572   54.5291 C.2     1  ZINC000464867530    0.5300
     11 O11       -10.1318    0.8955   55.6515 O.2     1  ZINC000464867530   -0.5100
     12 C12       -10.9067   -0.6313   54.0271 C.3     1  ZINC000464867530   -0.1200
     13 H13       -10.3158   -1.4039   53.5351 H       1  ZINC000464867530    0.1000
     14 C14       -11.9060   -0.0402   53.0302 C.3     1  ZINC000464867530   -0.1200
     15 C15       -12.8129   -1.1507   52.4950 C.3     1  ZINC000464867530   -0.1300
     16 C16       -13.5971   -1.7685   53.6570 C.3     1  ZINC000464867530    0.1000
     17 N17       -12.6469   -2.2093   54.6874 N.am    1  ZINC000464867530   -0.6100
     18 C18       -12.6716   -3.4758   55.1475 C.2     1  ZINC000464867530    0.5500
     19 O19       -13.4825   -4.2643   54.7098 O.2     1  ZINC000464867530   -0.5300
     20 C20       -11.6915   -3.9123   56.2058 C.3     1  ZINC000464867530   -0.1700
     21 H21       -10.6392   -3.8414   55.9303 H       1  ZINC000464867530    0.1300
     22 C22       -12.1068   -5.0673   57.1213 C.3     1  ZINC000464867530   -0.1300
     23 C23       -12.0584   -3.6412   57.6600 C.3     1  ZINC000464867530   -0.0600
     24 C24       -13.3456   -2.8845   58.0276 C.3     1  ZINC000464867530   -0.0900
     25 C25       -12.7951   -1.6344   58.7491 C.3     1  ZINC000464867530   -0.0800
     26 C26       -11.4485   -2.0539   59.3001 C.ar    1  ZINC000464867530   -0.0900
     27 C27       -10.6573   -1.4705   60.2746 C.ar    1  ZINC000464867530   -0.1100
     28 C28        -9.4458   -2.0377   60.6194 C.ar    1  ZINC000464867530   -0.1100
     29 C29        -9.0210   -3.1921   59.9894 C.ar    1  ZINC000464867530   -0.1200
     30 C30        -9.8088   -3.7765   59.0168 C.ar    1  ZINC000464867530   -0.1000
     31 C31       -11.0237   -3.2106   58.6693 C.ar    1  ZINC000464867530   -0.0700
     32 C32       -11.6687   -1.2437   55.2066 C.3     1  ZINC000464867530    0.1300
     33 H33        -6.9985    0.8845   50.4354 H       1  ZINC000464867530    0.0600
     34 H34        -6.4901    1.6964   51.9355 H       1  ZINC000464867530    0.0600
     35 H35        -5.5742    0.2969   51.3268 H       1  ZINC000464867530    0.0600
     36 H36        -7.5387   -1.1625   51.7264 H       1  ZINC000464867530    0.0700
     37 H37        -7.0303   -0.3505   53.2266 H       1  ZINC000464867530    0.0700
     38 H38        -8.9678    1.2231   51.6528 H       1  ZINC000464867530    0.0900
     39 H39        -9.6107   -0.3484   52.1869 H       1  ZINC000464867530    0.0900
     40 H40        -8.1654    2.0284   55.3080 H       1  ZINC000464867530    0.1300
     41 H41        -7.1152    1.8018   53.8888 H       1  ZINC000464867530    0.1200
     42 H42       -12.5130    0.7154   53.5291 H       1  ZINC000464867530    0.0800
     43 H43       -11.3651    0.4177   52.2020 H       1  ZINC000464867530    0.0800
     44 H44       -13.5090   -0.7331   51.7676 H       1  ZINC000464867530    0.0900
     45 H45       -12.2045   -1.9189   52.0177 H       1  ZINC000464867530    0.0700
     46 H46       -14.2734   -1.0244   54.0779 H       1  ZINC000464867530    0.0700
     47 H47       -14.1694   -2.6238   53.2979 H       1  ZINC000464867530    0.0900
     48 H48       -13.0887   -5.5113   56.9579 H       1  ZINC000464867530    0.1100
     49 H49       -11.3275   -5.7557   57.4486 H       1  ZINC000464867530    0.1100
     50 H50       -13.8996   -2.6031   57.1320 H       1  ZINC000464867530    0.0700
     51 H51       -13.9665   -3.4780   58.6988 H       1  ZINC000464867530    0.0800
     52 H52       -12.6753   -0.8126   58.0432 H       1  ZINC000464867530    0.0800
     53 H53       -13.4613   -1.3424   59.5609 H       1  ZINC000464867530    0.0800
     54 H54       -10.9883   -0.5681   60.7671 H       1  ZINC000464867530    0.1200
     55 H55        -8.8312   -1.5793   61.3801 H       1  ZINC000464867530    0.1300
     56 H56        -8.0740   -3.6369   60.2571 H       1  ZINC000464867530    0.1300
     57 H57        -9.4754   -4.6784   58.5250 H       1  ZINC000464867530    0.1200
     58 H58       -10.9692   -1.7528   55.8697 H       1  ZINC000464867530    0.1000
     59 H59       -12.1873   -0.4565   55.7539 H       1  ZINC000464867530    0.0800
@<TRIPOS>BOND
     1     1     2    1
     2     1    33    1
     3     1    34    1
     4     1    35    1
     5     2     3    1
     6     2    36    1
     7     2    37    1
     8     3     4    1
     9     3    38    1
    10     3    39    1
    11     4     5    1
    12     4    10   am
    13     5     6    1
    14     5    40    1
    15     5    41    1
    16     6     7    1
    17     6     8    1
    18     6     9    1
    19    10    11    2
    20    10    12    1
    21    12    13    1
    22    12    32    1
    23    12    14    1
    24    14    15    1
    25    14    42    1
    26    14    43    1
    27    15    16    1
    28    15    44    1
    29    15    45    1
    30    16    17    1
    31    16    46    1
    32    16    47    1
    33    17    18   am
    34    17    32    1
    35    18    19    2
    36    18    20    1
    37    20    21    1
    38    20    23    1
    39    20    22    1
    40    22    23    1
    41    22    48    1
    42    22    49    1
    43    23    31    1
    44    23    24    1
    45    24    25    1
    46    24    50    1
    47    24    51    1
    48    25    26    1
    49    25    52    1
    50    25    53    1
    51    26    31   ar
    52    26    27   ar
    53    27    28   ar
    54    27    54    1
    55    28    29   ar
    56    28    55    1
    57    29    30   ar
    58    29    56    1
    59    30    31   ar
    60    30    57    1
    61    32    58    1
    62    32    59    1
@<TRIPOS>SUBSTRUCTURE
     1 ZINC000464867530        1 TEMP              0 ****  ****    0 ROOT


##########                                Name:    ZINC000643274279
##########                DOCK_Rotatable_Bonds:                   6
##########                         Heavy_Atoms:                  29
##########                    Molecular_Weight:             392.454
##########                DOCK_Rotatable_Bonds:                   6
##########                       Formal_Charge:         -0.00999939
##########                     HBond_Acceptors:                   6
##########                        HBond_Donors:                   2
##########                         Heavy_Atoms:                  29
##########                          Grid_Score:          -35.961727
##########                     Grid_vdw_energy:          -32.761822
##########                      Grid_es_energy:           -3.199904
##########           Internal_energy_repulsive:            8.302039

@<TRIPOS>MOLECULE
ZINC000643274279
 53 56 1 0 0
SMALL
USER_CHARGES


@<TRIPOS>ATOM
      1 O1        -10.1588    1.4778   53.2036 O.2     1  ZINC000643274279   -0.4900
      2 C2         -9.7896    0.9784   54.2465 C.2     1  ZINC000643274279    0.5100
      3 N3         -8.5181    1.1456   54.6608 N.am    1  ZINC000643274279   -0.6400
      4 C4         -7.6230    1.8892   53.8867 C.ar    1  ZINC000643274279    0.1300
      5 C5         -7.1724    3.1236   54.3410 C.ar    1  ZINC000643274279   -0.1000
      6 C6         -6.2949    3.8725   53.5759 C.ar    1  ZINC000643274279   -0.1000
      7 C7         -5.8670    3.3939   52.3573 C.ar    1  ZINC000643274279   -0.0600
      8 C8         -4.9604    4.2429   51.4835 C.3     1  ZINC000643274279   -0.0900
      9 C9         -3.5874    3.5863   51.3967 C.3     1  ZINC000643274279   -0.1200
     10 C10        -3.5247    2.5734   50.2634 C.3     1  ZINC000643274279   -0.1100
     11 C11        -4.3115    1.3126   50.5184 C.3     1  ZINC000643274279   -0.1600
     12 C12        -5.7907    1.6319   50.6155 C.2     1  ZINC000643274279    0.4100
     13 O13        -6.5325    1.4692   49.6703 O.2     1  ZINC000643274279   -0.4400
     14 C14        -6.2930    2.1465   51.9014 C.ar    1  ZINC000643274279   -0.1300
     15 C15        -7.1814    1.3913   52.6694 C.ar    1  ZINC000643274279   -0.1000
     16 C16       -10.7463    0.1838   55.0736 C.2     1  ZINC000643274279    0.5200
     17 O17       -11.2258   -0.8396   54.6315 O.2     1  ZINC000643274279   -0.5000
     18 N18       -11.0770    0.6034   56.3109 N.am    1  ZINC000643274279   -0.5800
     19 C19       -10.5716    1.8221   56.9687 C.3     1  ZINC000643274279    0.0900
     20 C20       -11.6521    2.1833   58.0185 C.3     1  ZINC000643274279   -0.1400
     21 C21       -12.0921    0.7785   58.5085 C.3     1  ZINC000643274279   -0.1200
     22 C22       -12.0066   -0.0752   57.2259 C.3     1  ZINC000643274279    0.1800
     23 H23       -12.9924   -0.1561   56.7679 H       1  ZINC000643274279    0.0900
     24 C24       -11.4818   -1.4483   57.5581 C.ar    1  ZINC000643274279   -0.1000
     25 C25       -12.2235   -2.5683   57.2311 C.ar    1  ZINC000643274279   -0.0900
     26 C26       -11.7447   -3.8281   57.5347 C.ar    1  ZINC000643274279   -0.1400
     27 C27       -10.5183   -3.9688   58.1677 C.ar    1  ZINC000643274279    0.1100
     28 O28       -10.0449   -5.2070   58.4669 O.3     1  ZINC000643274279   -0.5000
     29 C29        -9.7758   -2.8434   58.4943 C.ar    1  ZINC000643274279   -0.1400
     30 C30       -10.2567   -1.5860   58.1844 C.ar    1  ZINC000643274279   -0.0900
     31 H31        -8.2243    0.7498   55.4962 H       1  ZINC000643274279    0.4200
     32 H32        -7.5090    3.5003   55.2956 H       1  ZINC000643274279    0.1400
     33 H33        -5.9470    4.8302   53.9335 H       1  ZINC000643274279    0.1400
     34 H34        -5.3889    4.3236   50.4846 H       1  ZINC000643274279    0.0800
     35 H35        -4.8615    5.2371   51.9194 H       1  ZINC000643274279    0.0800
     36 H36        -2.8342    4.3561   51.2286 H       1  ZINC000643274279    0.0800
     37 H37        -3.3741    3.0807   52.3386 H       1  ZINC000643274279    0.0700
     38 H38        -3.9069    3.0431   49.3571 H       1  ZINC000643274279    0.0700
     39 H39        -2.4818    2.3035   50.0968 H       1  ZINC000643274279    0.0800
     40 H40        -4.1460    0.6115   49.7004 H       1  ZINC000643274279    0.0900
     41 H41        -3.9772    0.8607   51.4524 H       1  ZINC000643274279    0.0900
     42 H42        -7.5249    0.4299   52.3170 H       1  ZINC000643274279    0.1300
     43 H43        -9.6188    1.6215   57.4585 H       1  ZINC000643274279    0.0800
     44 H44       -10.4637    2.6280   56.2427 H       1  ZINC000643274279    0.1000
     45 H45       -11.2245    2.7656   58.8346 H       1  ZINC000643274279    0.0900
     46 H46       -12.4841    2.7141   57.5559 H       1  ZINC000643274279    0.0800
     47 H47       -11.4091    0.4047   59.2713 H       1  ZINC000643274279    0.0800
     48 H48       -13.1150    0.8041   58.8844 H       1  ZINC000643274279    0.0900
     49 H49       -13.1782   -2.4584   56.7383 H       1  ZINC000643274279    0.1200
     50 H50       -12.3248   -4.7027   57.2797 H       1  ZINC000643274279    0.1300
     51 H51       -10.6587   -5.9241   58.2571 H       1  ZINC000643274279    0.3900
     52 H52        -8.8209   -2.9503   58.9875 H       1  ZINC000643274279    0.1300
     53 H53        -9.6790   -0.7097   58.4381 H       1  ZINC000643274279    0.1300
@<TRIPOS>BOND
     1     1     2    2
     2     2     3   am
     3     2    16    1
     4     3     4    1
     5     3    31    1
     6     4    15   ar
     7     4     5   ar
     8     5     6   ar
     9     5    32    1
    10     6     7   ar
    11     6    33    1
    12     7    14   ar
    13     7     8    1
    14     8     9    1
    15     8    34    1
    16     8    35    1
    17     9    10    1
    18     9    36    1
    19     9    37    1
    20    10    11    1
    21    10    38    1
    22    10    39    1
    23    11    12    1
    24    11    40    1
    25    11    41    1
    26    12    13    2
    27    12    14    1
    28    14    15   ar
    29    15    42    1
    30    16    17    2
    31    16    18   am
    32    18    22    1
    33    18    19    1
    34    19    20    1
    35    19    43    1
    36    19    44    1
    37    20    21    1
    38    20    45    1
    39    20    46    1
    40    21    22    1
    41    21    47    1
    42    21    48    1
    43    22    23    1
    44    22    24    1
    45    24    30   ar
    46    24    25   ar
    47    25    26   ar
    48    25    49    1
    49    26    27   ar
    50    26    50    1
    51    27    28    1
    52    27    29   ar
    53    28    51    1
    54    29    30   ar
    55    29    52    1
    56    30    53    1
@<TRIPOS>SUBSTRUCTURE
     1 ZINC000643274279        1 TEMP              0 ****  ****    0 ROOT


##########                                Name:    ZINC000435005159
##########                DOCK_Rotatable_Bonds:                  12
##########                         Heavy_Atoms:                  30
##########                    Molecular_Weight:             401.508
##########                DOCK_Rotatable_Bonds:                  12
##########                       Formal_Charge:          -0.0399985
##########                     HBond_Acceptors:                   5
##########                        HBond_Donors:                   2
##########                         Heavy_Atoms:                  30
##########                          Grid_Score:          -35.917870
##########                     Grid_vdw_energy:          -33.141296
##########                      Grid_es_energy:           -2.776572
##########           Internal_energy_repulsive:           14.134950

@<TRIPOS>MOLECULE
ZINC000435005159
 57 59 1 0 0
SMALL
USER_CHARGES


@<TRIPOS>ATOM
      1 O1        -10.1598   -3.6464   58.5693 O.2     1  ZINC000435005159   -0.5300
      2 C2         -9.6995   -2.5425   58.7704 C.2     1  ZINC000435005159    0.5200
      3 C3         -8.6338   -2.3500   59.8184 C.3     1  ZINC000435005159   -0.1400
      4 C4         -9.2900   -2.2096   61.1934 C.3     1  ZINC000435005159   -0.1200
      5 C5        -10.0930   -0.9083   61.2448 C.3     1  ZINC000435005159    0.1200
      6 N6        -10.0291   -0.3483   62.5971 N.am    1  ZINC000435005159   -0.7200
      7 C7        -11.0555    0.3849   63.0720 C.2     1  ZINC000435005159    0.5600
      8 O8        -12.0335    0.5826   62.3778 O.2     1  ZINC000435005159   -0.5300
      9 C9        -10.9918    0.9486   64.4372 C.ar    1  ZINC000435005159   -0.1900
     10 C10       -12.0531    1.7079   64.9439 C.ar    1  ZINC000435005159   -0.0200
     11 C11       -11.9440    2.2126   66.2280 C.ar    1  ZINC000435005159   -0.1800
     12 C12       -10.8012    1.9533   66.9625 C.ar    1  ZINC000435005159    0.1200
     13 N13        -9.8161    1.2343   66.4586 N.ar    1  ZINC000435005159   -0.4900
     14 C14        -9.8751    0.7279   65.2447 C.ar    1  ZINC000435005159    0.1400
     15 N15       -10.1370   -1.4889   58.0528 N.am    1  ZINC000435005159   -0.7300
     16 C16       -11.1731   -1.6760   57.0341 C.3     1  ZINC000435005159    0.1900
     17 H17       -11.2647   -2.7366   56.7995 H       1  ZINC000435005159    0.1000
     18 C18       -12.5099   -1.1538   57.5644 C.3     1  ZINC000435005159   -0.1200
     19 C19       -13.2718   -2.2958   58.2397 C.3     1  ZINC000435005159   -0.0800
     20 C20       -13.6573   -3.3228   57.2064 C.ar    1  ZINC000435005159   -0.0800
     21 C21       -13.1238   -4.5968   57.2654 C.ar    1  ZINC000435005159   -0.1200
     22 C22       -13.4775   -5.5388   56.3177 C.ar    1  ZINC000435005159   -0.1200
     23 C23       -14.3650   -5.2071   55.3110 C.ar    1  ZINC000435005159   -0.1200
     24 C24       -14.8991   -3.9335   55.2526 C.ar    1  ZINC000435005159   -0.1200
     25 C25       -14.5488   -2.9927   56.2029 C.ar    1  ZINC000435005159   -0.1200
     26 C26       -10.7957   -0.9167   55.7883 C.ar    1  ZINC000435005159   -0.1000
     27 C27       -10.9660   -1.4986   54.5461 C.ar    1  ZINC000435005159   -0.1100
     28 C28       -10.6199   -0.8022   53.4033 C.ar    1  ZINC000435005159   -0.1200
     29 C29       -10.1039    0.4765   53.5027 C.ar    1  ZINC000435005159   -0.1200
     30 C30        -9.9344    1.0587   54.7450 C.ar    1  ZINC000435005159   -0.1200
     31 C31       -10.2845    0.3638   55.8875 C.ar    1  ZINC000435005159   -0.1000
     32 H32        -7.9664   -3.2120   59.8206 H       1  ZINC000435005159    0.1000
     33 H33        -8.0627   -1.4490   59.5947 H       1  ZINC000435005159    0.1000
     34 H34        -9.9563   -3.0549   61.3660 H       1  ZINC000435005159    0.0800
     35 H35        -8.5191   -2.1916   61.9637 H       1  ZINC000435005159    0.0800
     36 H36        -9.6738   -0.1944   60.5358 H       1  ZINC000435005159    0.0700
     37 H37       -11.1317   -1.1118   60.9847 H       1  ZINC000435005159    0.0700
     38 H38        -9.2481   -0.5050   63.1506 H       1  ZINC000435005159    0.4000
     39 H39       -12.9341    1.8954   64.3480 H       1  ZINC000435005159    0.1500
     40 H40       -12.7428    2.8031   66.6518 H       1  ZINC000435005159    0.1500
     41 H41       -10.7135    2.3458   67.9648 H       1  ZINC000435005159    0.1600
     42 H42        -9.0485    0.1443   64.8674 H       1  ZINC000435005159    0.1600
     43 H43        -9.7660   -0.6067   58.2110 H       1  ZINC000435005159    0.4000
     44 H44       -12.3283   -0.3599   58.2888 H       1  ZINC000435005159    0.0700
     45 H45       -13.1011   -0.7622   56.7366 H       1  ZINC000435005159    0.0800
     46 H46       -12.6368   -2.7601   58.9942 H       1  ZINC000435005159    0.0700
     47 H47       -14.1710   -1.9023   58.7139 H       1  ZINC000435005159    0.0700
     48 H48       -12.4304   -4.8559   58.0519 H       1  ZINC000435005159    0.1200
     49 H49       -13.0601   -6.5338   56.3634 H       1  ZINC000435005159    0.1200
     50 H50       -14.6407   -5.9429   54.5702 H       1  ZINC000435005159    0.1200
     51 H51       -15.5922   -3.6742   54.4659 H       1  ZINC000435005159    0.1200
     52 H52       -14.9662   -1.9976   56.1572 H       1  ZINC000435005159    0.1200
     53 H53       -11.3692   -2.4975   54.4683 H       1  ZINC000435005159    0.1200
     54 H54       -10.7523   -1.2571   52.4328 H       1  ZINC000435005159    0.1200
     55 H55        -9.8329    1.0203   52.6100 H       1  ZINC000435005159    0.1200
     56 H56        -9.5310    2.0575   54.8227 H       1  ZINC000435005159    0.1200
     57 H57       -10.1522    0.8187   56.8581 H       1  ZINC000435005159    0.1200
@<TRIPOS>BOND
     1     1     2    2
     2     2     3    1
     3     2    15   am
     4     3     4    1
     5     3    32    1
     6     3    33    1
     7     4     5    1
     8     4    34    1
     9     4    35    1
    10     5     6    1
    11     5    36    1
    12     5    37    1
    13     6     7   am
    14     6    38    1
    15     7     8    2
    16     7     9    1
    17     9    14   ar
    18     9    10   ar
    19    10    11   ar
    20    10    39    1
    21    11    12   ar
    22    11    40    1
    23    12    13   ar
    24    12    41    1
    25    13    14   ar
    26    14    42    1
    27    15    16    1
    28    15    43    1
    29    16    17    1
    30    16    18    1
    31    16    26    1
    32    18    19    1
    33    18    44    1
    34    18    45    1
    35    19    20    1
    36    19    46    1
    37    19    47    1
    38    20    25   ar
    39    20    21   ar
    40    21    22   ar
    41    21    48    1
    42    22    23   ar
    43    22    49    1
    44    23    24   ar
    45    23    50    1
    46    24    25   ar
    47    24    51    1
    48    25    52    1
    49    26    31   ar
    50    26    27   ar
    51    27    28   ar
    52    27    53    1
    53    28    29   ar
    54    28    54    1
    55    29    30   ar
    56    29    55    1
    57    30    31   ar
    58    30    56    1
    59    31    57    1
@<TRIPOS>SUBSTRUCTURE
     1 ZINC000435005159        1 TEMP              0 ****  ****    0 ROOT


##########                                Name:    ZINC001327099466
##########                DOCK_Rotatable_Bonds:                   7
##########                         Heavy_Atoms:                  27
##########                    Molecular_Weight:             374.483
##########                DOCK_Rotatable_Bonds:                   7
##########                       Formal_Charge:           0.0199998
##########                     HBond_Acceptors:                   7
##########                        HBond_Donors:                   1
##########                         Heavy_Atoms:                  27
##########                          Grid_Score:          -35.915127
##########                     Grid_vdw_energy:          -34.377930
##########                      Grid_es_energy:           -1.537196
##########           Internal_energy_repulsive:           14.332944

@<TRIPOS>MOLECULE
ZINC001327099466
 57 60 1 0 0
SMALL
USER_CHARGES


@<TRIPOS>ATOM
      1 O1        -12.0725   -0.1982   54.2297 O.2     1  ZINC001327099466   -0.4800
      2 C2        -11.7145   -1.3082   53.8933 C.2     1  ZINC001327099466    0.5300
      3 N3        -10.4195   -1.5385   53.5993 N.am    1  ZINC001327099466   -0.6000
      4 C4         -9.4887   -0.4966   53.6763 C.2     1  ZINC001327099466    0.2900
      5 N5         -8.7061   -0.0881   52.7048 N.2     1  ZINC001327099466   -0.3100
      6 N6         -7.9283    0.9723   53.1871 N.pl3   1  ZINC001327099466   -0.3500
      7 C7         -6.9229    1.7178   52.4258 C.3     1  ZINC001327099466    0.1700
      8 C8         -6.2820    0.7950   51.3873 C.3     1  ZINC001327099466   -0.1300
      9 C9         -5.2320    1.5736   50.5921 C.3     1  ZINC001327099466   -0.1200
     10 C10        -5.9003    2.7530   49.8830 C.3     1  ZINC001327099466   -0.1300
     11 C11        -6.5413    3.6758   50.9215 C.3     1  ZINC001327099466   -0.1200
     12 C12        -7.5913    2.8972   51.7166 C.3     1  ZINC001327099466   -0.1300
     13 C13        -8.2676    1.1877   54.4757 C.2     1  ZINC001327099466    0.0700
     14 C14        -9.2325    0.2995   54.8049 C.2     1  ZINC001327099466   -0.2700
     15 C15       -12.7080   -2.4202   53.8112 C.2     1  ZINC001327099466    0.5100
     16 O16       -13.5143   -2.4479   52.9045 O.2     1  ZINC001327099466   -0.5100
     17 N17       -12.7093   -3.3931   54.7439 N.am    1  ZINC001327099466   -0.5700
     18 C18       -13.6805   -4.4936   54.6764 C.3     1  ZINC001327099466    0.0400
     19 C19       -14.4187   -4.5827   56.0158 C.3     1  ZINC001327099466   -0.1300
     20 C20       -13.3979   -4.7138   57.1485 C.3     1  ZINC001327099466   -0.1200
     21 C21       -12.4993   -3.4753   57.1737 C.3     1  ZINC001327099466    0.0800
     22 H22       -13.1119   -2.5842   57.3112 H       1  ZINC001327099466    0.0700
     23 O23       -11.5670   -3.5841   58.2512 O.3     1  ZINC001327099466   -0.3500
     24 C24       -10.7389   -2.4321   58.4219 C.3     1  ZINC001327099466    0.0600
     25 C25       -11.4981   -1.1993   58.9405 C.3     1  ZINC001327099466   -0.1600
     26 C26       -11.1844   -1.7011   60.3600 C.3     1  ZINC001327099466   -0.1400
     27 C27        -9.9680   -2.4194   59.7524 C.3     1  ZINC001327099466   -0.1400
     28 C28       -11.7358   -3.3765   55.8443 C.3     1  ZINC001327099466    0.0900
     29 H29       -10.1328   -2.4264   53.3343 H       1  ZINC001327099466    0.4300
     30 H30        -6.1552    2.0896   53.1044 H       1  ZINC001327099466    0.1000
     31 H31        -5.8058   -0.0453   51.8925 H       1  ZINC001327099466    0.0700
     32 H32        -7.0497    0.4233   50.7086 H       1  ZINC001327099466    0.0700
     33 H33        -4.4644    1.9453   51.2708 H       1  ZINC001327099466    0.0700
     34 H34        -4.7754    0.9161   49.8522 H       1  ZINC001327099466    0.0700
     35 H35        -5.1524    3.3077   49.3165 H       1  ZINC001327099466    0.0700
     36 H36        -6.6681    2.3812   49.2043 H       1  ZINC001327099466    0.0700
     37 H37        -5.7736    4.0476   51.6002 H       1  ZINC001327099466    0.0700
     38 H38        -7.0175    4.5162   50.4163 H       1  ZINC001327099466    0.0700
     39 H39        -8.3590    2.5255   51.0380 H       1  ZINC001327099466    0.0700
     40 H40        -8.0479    3.5547   52.4565 H       1  ZINC001327099466    0.0700
     41 H41        -7.8460    1.9389   55.1271 H       1  ZINC001327099466    0.1800
     42 H42        -9.7163    0.2135   55.7667 H       1  ZINC001327099466    0.1700
     43 H43       -14.3960   -4.3010   53.8770 H       1  ZINC001327099466    0.1600
     44 H44       -13.1580   -5.4306   54.4841 H       1  ZINC001327099466    0.0700
     45 H45       -15.0131   -3.6812   56.1643 H       1  ZINC001327099466    0.0700
     46 H46       -15.0731   -5.4543   56.0131 H       1  ZINC001327099466    0.0900
     47 H47       -13.9213   -4.8022   58.1005 H       1  ZINC001327099466    0.0800
     48 H48       -12.7874   -5.6021   56.9862 H       1  ZINC001327099466    0.0800
     49 H49       -10.1135   -2.2278   57.5529 H       1  ZINC001327099466    0.0700
     50 H50       -11.0147   -0.2538   58.6949 H       1  ZINC001327099466    0.0900
     51 H51       -12.5610   -1.2077   58.6994 H       1  ZINC001327099466    0.0700
     52 H52       -10.9188   -0.9051   61.0557 H       1  ZINC001327099466    0.0700
     53 H53       -11.9377   -2.3799   60.7595 H       1  ZINC001327099466    0.0800
     54 H54        -9.7957   -3.4128   60.1668 H       1  ZINC001327099466    0.0800
     55 H55        -9.0663   -1.8075   59.7288 H       1  ZINC001327099466    0.0900
     56 H56       -11.0554   -4.2229   55.7500 H       1  ZINC001327099466    0.0900
     57 H57       -11.1700   -2.4453   55.8160 H       1  ZINC001327099466    0.1000
@<TRIPOS>BOND
     1     1     2    2
     2     2     3   am
     3     2    15    1
     4     3     4    1
     5     3    29    1
     6     4    14    1
     7     4     5    2
     8     5     6    1
     9     6     7    1
    10     6    13    1
    11     7    12    1
    12     7     8    1
    13     7    30    1
    14     8     9    1
    15     8    31    1
    16     8    32    1
    17     9    10    1
    18     9    33    1
    19     9    34    1
    20    10    11    1
    21    10    35    1
    22    10    36    1
    23    11    12    1
    24    11    37    1
    25    11    38    1
    26    12    39    1
    27    12    40    1
    28    13    14    2
    29    13    41    1
    30    14    42    1
    31    15    16    2
    32    15    17   am
    33    17    28    1
    34    17    18    1
    35    18    19    1
    36    18    43    1
    37    18    44    1
    38    19    20    1
    39    19    45    1
    40    19    46    1
    41    20    21    1
    42    20    47    1
    43    20    48    1
    44    21    22    1
    45    21    23    1
    46    21    28    1
    47    23    24    1
    48    24    27    1
    49    24    25    1
    50    24    49    1
    51    25    26    1
    52    25    50    1
    53    25    51    1
    54    26    27    1
    55    26    52    1
    56    26    53    1
    57    27    54    1
    58    27    55    1
    59    28    56    1
    60    28    57    1
@<TRIPOS>SUBSTRUCTURE
     1 ZINC001327099466        1 TEMP              0 ****  ****    0 ROOT


##########                                Name:    ZINC001070580102
##########                DOCK_Rotatable_Bonds:                   8
##########                         Heavy_Atoms:                  25
##########                    Molecular_Weight:              349.39
##########                DOCK_Rotatable_Bonds:                   8
##########                       Formal_Charge:          -0.0100003
##########                     HBond_Acceptors:                   9
##########                        HBond_Donors:                   3
##########                         Heavy_Atoms:                  25
##########                          Grid_Score:          -35.912621
##########                     Grid_vdw_energy:          -34.415501
##########                      Grid_es_energy:           -1.497121
##########           Internal_energy_repulsive:           19.770929

@<TRIPOS>MOLECULE
ZINC001070580102
 48 50 1 0 0
SMALL
USER_CHARGES


@<TRIPOS>ATOM
      1 C1        -11.4503    0.7072   57.0014 C.3     1  ZINC001070580102   -0.0800
      2 C2        -10.4179    0.8934   55.9195 C.2     1  ZINC001070580102   -0.0100
      3 C3        -10.2244    0.0691   54.8786 C.2     1  ZINC001070580102   -0.1900
      4 C4         -9.1231    0.6537   54.0995 C.2     1  ZINC001070580102   -0.2500
      5 C5         -8.5316    0.1247   52.8575 C.2     1  ZINC001070580102    0.6000
      6 O6         -9.0651   -0.8006   52.2760 O.2     1  ZINC001070580102   -0.5300
      7 N7         -7.3996    0.6666   52.3662 N.am    1  ZINC001070580102   -0.7200
      8 C8         -6.8108    0.1396   51.1326 C.3     1  ZINC001070580102    0.2000
      9 C9         -5.9069    1.1801   50.5230 C.2     1  ZINC001070580102    0.2600
     10 N10        -4.6075    1.2450   50.6611 N.2     1  ZINC001070580102   -0.5100
     11 C11        -4.1330    2.2913   49.9863 C.2     1  ZINC001070580102    0.2300
     12 C12        -2.6837    2.6960   49.9040 C.3     1  ZINC001070580102    0.1400
     13 H13        -2.5917    3.5995   49.3012 H       1  ZINC001070580102    0.0800
     14 C14        -1.8736    1.5675   49.2604 C.3     1  ZINC001070580102    0.0800
     15 O15        -0.4891    1.9256   49.2531 O.3     1  ZINC001070580102   -0.3800
     16 C16         0.0463    2.1820   50.5543 C.3     1  ZINC001070580102    0.0600
     17 C17        -0.7444    3.3167   51.2110 C.3     1  ZINC001070580102    0.0200
     18 N18        -2.1683    2.9536   51.2565 N.3     1  ZINC001070580102   -0.5200
     19 C19        -2.9555    3.9939   51.9318 C.3     1  ZINC001070580102    0.0600
     20 C20        -3.7130    3.3765   53.1091 C.3     1  ZINC001070580102    0.0800
     21 O21        -2.7786    2.9070   54.0831 O.3     1  ZINC001070580102   -0.5700
     22 N22        -5.1283    2.9094   49.4068 N.2     1  ZINC001070580102   -0.2700
     23 N23        -6.2944    2.1998   49.7375 N.pl3   1  ZINC001070580102   -0.4700
     24 C24        -8.7638    1.7885   54.7659 C.2     1  ZINC001070580102    0.0900
     25 C25        -7.6712    2.7424   54.3568 C.3     1  ZINC001070580102   -0.0900
     26 O26        -9.5490    1.9133   55.8402 O.3     1  ZINC001070580102   -0.1700
     27 H27       -11.3835    1.5301   57.7130 H       1  ZINC001070580102    0.0800
     28 H28       -12.4450    0.6922   56.5557 H       1  ZINC001070580102    0.0900
     29 H29       -11.2694   -0.2354   57.5179 H       1  ZINC001070580102    0.0900
     30 H30       -10.7666   -0.8386   54.6583 H       1  ZINC001070580102    0.1500
     31 H31        -6.9748    1.4054   52.8293 H       1  ZINC001070580102    0.4000
     32 H32        -6.2324   -0.7560   51.3597 H       1  ZINC001070580102    0.1000
     33 H33        -7.6047   -0.1095   50.4285 H       1  ZINC001070580102    0.1100
     34 H34        -2.0091    0.6499   49.8329 H       1  ZINC001070580102    0.0700
     35 H35        -2.2149    1.4124   48.2368 H       1  ZINC001070580102    0.1000
     36 H36        -0.0335    1.2823   51.1644 H       1  ZINC001070580102    0.0600
     37 H37         1.0935    2.4713   50.4666 H       1  ZINC001070580102    0.1000
     38 H38        -0.3771    3.4771   52.2246 H       1  ZINC001070580102    0.1200
     39 H39        -0.6208    4.2303   50.6294 H       1  ZINC001070580102    0.0400
     40 H40        -2.2883    4.7741   52.2981 H       1  ZINC001070580102    0.0500
     41 H41        -3.6672    4.4253   51.2280 H       1  ZINC001070580102    0.0800
     42 H42        -4.3600    4.1291   53.5597 H       1  ZINC001070580102    0.0500
     43 H43        -4.3182    2.5423   52.7544 H       1  ZINC001070580102    0.0600
     44 H44        -2.1944    2.2064   53.7620 H       1  ZINC001070580102    0.3800
     45 H45        -7.2001    2.4081   49.4596 H       1  ZINC001070580102    0.4400
     46 H46        -8.0857    3.5118   53.7055 H       1  ZINC001070580102    0.0900
     47 H47        -7.2452    3.2092   55.2450 H       1  ZINC001070580102    0.0800
     48 H48        -6.8925    2.1963   53.8245 H       1  ZINC001070580102    0.1100
@<TRIPOS>BOND
     1     1     2    1
     2     1    27    1
     3     1    28    1
     4     1    29    1
     5     2    26    1
     6     2     3    2
     7     3     4    1
     8     3    30    1
     9     4     5    1
    10     4    24    2
    11     5     6    2
    12     5     7   am
    13     7     8    1
    14     7    31    1
    15     8     9    1
    16     8    32    1
    17     8    33    1
    18     9    23    1
    19     9    10    2
    20    10    11    1
    21    11    12    1
    22    11    22    2
    23    12    13    1
    24    12    18    1
    25    12    14    1
    26    14    15    1
    27    14    34    1
    28    14    35    1
    29    15    16    1
    30    16    17    1
    31    16    36    1
    32    16    37    1
    33    17    18    1
    34    17    38    1
    35    17    39    1
    36    18    19    1
    37    19    20    1
    38    19    40    1
    39    19    41    1
    40    20    21    1
    41    20    42    1
    42    20    43    1
    43    21    44    1
    44    22    23    1
    45    23    45    1
    46    24    25    1
    47    24    26    1
    48    25    46    1
    49    25    47    1
    50    25    48    1
@<TRIPOS>SUBSTRUCTURE
     1 ZINC001070580102        1 TEMP              0 ****  ****    0 ROOT


##########                                Name:    ZINC001408567397
##########                DOCK_Rotatable_Bonds:                   9
##########                         Heavy_Atoms:                  24
##########                    Molecular_Weight:             336.434
##########                DOCK_Rotatable_Bonds:                   9
##########                       Formal_Charge:          -0.0199996
##########                     HBond_Acceptors:                   7
##########                        HBond_Donors:                   2
##########                         Heavy_Atoms:                  24
##########                          Grid_Score:          -35.876038
##########                     Grid_vdw_energy:          -34.173008
##########                      Grid_es_energy:           -1.703032
##########           Internal_energy_repulsive:           18.618095

@<TRIPOS>MOLECULE
ZINC001408567397
 52 53 1 0 0
SMALL
USER_CHARGES


@<TRIPOS>ATOM
      1 C1         -8.0815    1.4781   53.8105 C.3     1  ZINC001408567397   -0.0800
      2 C2         -7.3307    1.1941   52.5350 C.2     1  ZINC001408567397    0.0900
      3 N3         -7.3839    0.0843   51.8443 N.2     1  ZINC001408567397   -0.2900
      4 N4         -6.5445    0.2208   50.7312 N.pl3   1  ZINC001408567397   -0.4700
      5 C5         -5.9874    1.4490   50.7792 C.2     1  ZINC001408567397    0.1100
      6 C6         -5.0166    2.0239   49.7803 C.3     1  ZINC001408567397   -0.1000
      7 C7         -6.4611    2.0739   51.8820 C.2     1  ZINC001408567397   -0.2200
      8 C8         -6.1075    3.4679   52.3319 C.3     1  ZINC001408567397   -0.0600
      9 C9         -4.8378    3.4272   53.1425 C.2     1  ZINC001408567397    0.5100
     10 O10        -3.7614    3.4209   52.5837 O.2     1  ZINC001408567397   -0.5300
     11 N11        -4.8983    3.3978   54.4887 N.am    1  ZINC001408567397   -0.7300
     12 C12        -3.6639    3.3600   55.2768 C.3     1  ZINC001408567397    0.1100
     13 C13        -4.0089    3.1780   56.7562 C.3     1  ZINC001408567397    0.1000
     14 N14        -2.8114    2.7590   57.4889 N.am    1  ZINC001408567397   -0.6200
     15 C15        -2.0772    1.5626   57.0695 C.3     1  ZINC001408567397    0.0700
     16 C16        -2.3851    3.4743   58.5487 C.2     1  ZINC001408567397    0.5100
     17 O17        -2.9937    4.4638   58.8968 O.2     1  ZINC001408567397   -0.5300
     18 C18        -1.1523    3.0442   59.3012 C.3     1  ZINC001408567397   -0.1300
     19 C19        -1.5454    2.0582   60.4031 C.3     1  ZINC001408567397   -0.1100
     20 H20        -2.0753    1.2131   59.9635 H       1  ZINC001408567397    0.0900
     21 C21        -0.2853    1.5576   61.1156 C.3     1  ZINC001408567397   -0.1200
     22 C22        -0.6956    0.6327   62.2655 C.3     1  ZINC001408567397   -0.1600
     23 C23        -1.6345    1.3893   63.2087 C.3     1  ZINC001408567397    0.0600
     24 O24        -2.7703    1.8539   62.4764 O.3     1  ZINC001408567397   -0.3800
     25 C25        -2.4528    2.7594   61.4173 C.3     1  ZINC001408567397    0.0600
     26 H26        -9.0494    1.9189   53.5719 H       1  ZINC001408567397    0.0800
     27 H27        -8.2312    0.5480   54.3588 H       1  ZINC001408567397    0.0700
     28 H28        -7.5070    2.1727   54.4233 H       1  ZINC001408567397    0.0800
     29 H29        -6.3907   -0.4493   50.0468 H       1  ZINC001408567397    0.4400
     30 H30        -5.5673    2.5394   48.9935 H       1  ZINC001408567397    0.0800
     31 H31        -4.3540    2.7292   50.2820 H       1  ZINC001408567397    0.0900
     32 H32        -4.4261    1.2189   49.3428 H       1  ZINC001408567397    0.0700
     33 H33        -5.9613    4.1050   51.4597 H       1  ZINC001408567397    0.1000
     34 H34        -6.9161    3.8686   52.9431 H       1  ZINC001408567397    0.1000
     35 H35        -5.7591    3.4015   54.9356 H       1  ZINC001408567397    0.4000
     36 H36        -3.0450    2.5272   54.9430 H       1  ZINC001408567397    0.0700
     37 H37        -3.1187    4.2943   55.1431 H       1  ZINC001408567397    0.0700
     38 H38        -4.3723    4.1215   57.1633 H       1  ZINC001408567397    0.0800
     39 H39        -4.7820    2.4165   56.8581 H       1  ZINC001408567397    0.0900
     40 H40        -1.3134    1.8408   56.3435 H       1  ZINC001408567397    0.0600
     41 H41        -1.6036    1.1040   57.9375 H       1  ZINC001408567397    0.0800
     42 H42        -2.7686    0.8526   56.6156 H       1  ZINC001408567397    0.0800
     43 H43        -0.4566    2.5628   58.6141 H       1  ZINC001408567397    0.1000
     44 H44        -0.6763    3.9172   59.7479 H       1  ZINC001408567397    0.1000
     45 H45         0.3383    1.0082   60.4105 H       1  ZINC001408567397    0.0700
     46 H46         0.2713    2.4069   61.5117 H       1  ZINC001408567397    0.0600
     47 H47        -1.2089   -0.2414   61.8646 H       1  ZINC001408567397    0.0700
     48 H48         0.1923    0.3156   62.8126 H       1  ZINC001408567397    0.0700
     49 H49        -1.9637    0.7228   64.0058 H       1  ZINC001408567397    0.0900
     50 H50        -1.1076    2.2403   63.6405 H       1  ZINC001408567397    0.0500
     51 H51        -1.9365    3.6287   61.8248 H       1  ZINC001408567397    0.0400
     52 H52        -3.3712    3.0796   60.9253 H       1  ZINC001408567397    0.1100
@<TRIPOS>BOND
     1     1     2    1
     2     1    26    1
     3     1    27    1
     4     1    28    1
     5     2     7    1
     6     2     3    2
     7     3     4    1
     8     4     5    1
     9     4    29    1
    10     5     6    1
    11     5     7    2
    12     6    30    1
    13     6    31    1
    14     6    32    1
    15     7     8    1
    16     8     9    1
    17     8    33    1
    18     8    34    1
    19     9    10    2
    20     9    11   am
    21    11    12    1
    22    11    35    1
    23    12    13    1
    24    12    36    1
    25    12    37    1
    26    13    14    1
    27    13    38    1
    28    13    39    1
    29    14    15    1
    30    14    16   am
    31    15    40    1
    32    15    41    1
    33    15    42    1
    34    16    17    2
    35    16    18    1
    36    18    19    1
    37    18    43    1
    38    18    44    1
    39    19    20    1
    40    19    25    1
    41    19    21    1
    42    21    22    1
    43    21    45    1
    44    21    46    1
    45    22    23    1
    46    22    47    1
    47    22    48    1
    48    23    24    1
    49    23    49    1
    50    23    50    1
    51    24    25    1
    52    25    51    1
    53    25    52    1
@<TRIPOS>SUBSTRUCTURE
     1 ZINC001408567397        1 TEMP              0 ****  ****    0 ROOT


##########                                Name:    ZINC001143596311
##########                DOCK_Rotatable_Bonds:                   9
##########                         Heavy_Atoms:                  21
##########                    Molecular_Weight:             335.811
##########                DOCK_Rotatable_Bonds:                   9
##########                       Formal_Charge:          0.00999959
##########                     HBond_Acceptors:                   9
##########                        HBond_Donors:                   3
##########                         Heavy_Atoms:                  21
##########                          Grid_Score:          -35.874584
##########                     Grid_vdw_energy:          -35.457947
##########                      Grid_es_energy:           -0.416638
##########           Internal_energy_repulsive:           11.614182

@<TRIPOS>MOLECULE
ZINC001143596311
 39 39 1 0 0
SMALL
USER_CHARGES


@<TRIPOS>ATOM
      1 C1        -13.3126   -3.6596   57.2543 C.3     1  ZINC001143596311    0.0400
      2 O2        -13.0522   -3.1928   55.9290 O.3     1  ZINC001143596311   -0.2600
      3 N3        -12.7706   -4.2588   54.9673 N.3     1  ZINC001143596311   -0.3700
      4 C4        -13.8983   -5.1957   54.8749 C.3     1  ZINC001143596311    0.0000
      5 C5        -12.4380   -3.7036   53.6485 C.3     1  ZINC001143596311    0.0400
      6 C6        -11.4822   -2.5212   53.8193 C.3     1  ZINC001143596311   -0.1300
      7 C7        -10.7289   -2.2810   52.5094 C.3     1  ZINC001143596311    0.1200
      8 N8         -9.9655   -1.0344   52.6066 N.am    1  ZINC001143596311   -0.7200
      9 C9         -8.6566   -1.0190   52.2857 C.2     1  ZINC001143596311    0.5600
     10 O10        -8.1098   -2.0392   51.9143 O.2     1  ZINC001143596311   -0.5200
     11 C11        -7.8861    0.2382   52.3853 C.ar    1  ZINC001143596311   -0.1500
     12 C12        -8.2852    1.2358   53.2765 C.ar    1  ZINC001143596311   -0.0200
     13 C13        -7.5621    2.4069   53.3651 C.ar    1  ZINC001143596311   -0.1300
     14 C14        -6.4425    2.5943   52.5719 C.ar    1  ZINC001143596311    0.0700
     15 Cl15       -5.5374    4.0711   52.6889 Cl      1  ZINC001143596311   -0.0200
     16 C16        -6.0415    1.6078   51.6857 C.ar    1  ZINC001143596311   -0.6800
     17 S17        -4.6153    1.8552   50.6810 S.o2    1  ZINC001143596311    2.7000
     18 N18        -4.3570    0.4509   49.8423 N.am    1  ZINC001143596311   -1.2500
     19 O19        -4.9684    2.8386   49.7181 O.2     1  ZINC001143596311   -0.9400
     20 O20        -3.5171    1.9984   51.5715 O.2     1  ZINC001143596311   -0.9500
     21 C21        -6.7527    0.4303   51.5927 C.ar    1  ZINC001143596311    0.0500
     22 H22       -14.1797   -4.3201   57.2431 H       1  ZINC001143596311    0.0400
     23 H23       -12.4448   -4.2055   57.6243 H       1  ZINC001143596311    0.0500
     24 H24       -13.5120   -2.8092   57.9064 H       1  ZINC001143596311    0.0900
     25 H25       -14.7905   -4.6597   54.5512 H       1  ZINC001143596311    0.0400
     26 H26       -13.6624   -5.9778   54.1533 H       1  ZINC001143596311    0.0900
     27 H27       -14.0784   -5.6448   55.8516 H       1  ZINC001143596311    0.0800
     28 H28       -11.9603   -4.4720   53.0408 H       1  ZINC001143596311    0.0500
     29 H29       -13.3498   -3.3657   53.1561 H       1  ZINC001143596311    0.0900
     30 H30       -12.0512   -1.6287   54.0799 H       1  ZINC001143596311    0.0800
     31 H31       -10.7690   -2.7421   54.6134 H       1  ZINC001143596311    0.0800
     32 H32       -10.0470   -3.1112   52.3249 H       1  ZINC001143596311    0.0800
     33 H33       -11.4420   -2.2074   51.6884 H       1  ZINC001143596311    0.0800
     34 H34       -10.4021   -0.2201   52.9018 H       1  ZINC001143596311    0.4000
     35 H35        -9.1585    1.0911   53.8951 H       1  ZINC001143596311    0.1500
     36 H36        -7.8698    3.1795   54.0541 H       1  ZINC001143596311    0.1600
     37 H37        -3.6107    0.3842   49.2261 H       1  ZINC001143596311    0.4200
     38 H38        -4.9519   -0.3050   49.9670 H       1  ZINC001143596311    0.4200
     39 H39        -6.4393   -0.3380   50.9014 H       1  ZINC001143596311    0.1700
@<TRIPOS>BOND
     1     1     2    1
     2     1    22    1
     3     1    23    1
     4     1    24    1
     5     2     3    1
     6     3     4    1
     7     3     5    1
     8     4    25    1
     9     4    26    1
    10     4    27    1
    11     5     6    1
    12     5    28    1
    13     5    29    1
    14     6     7    1
    15     6    30    1
    16     6    31    1
    17     7     8    1
    18     7    32    1
    19     7    33    1
    20     8     9   am
    21     8    34    1
    22     9    10    2
    23     9    11    1
    24    11    21   ar
    25    11    12   ar
    26    12    13   ar
    27    12    35    1
    28    13    14   ar
    29    13    36    1
    30    14    15    1
    31    14    16   ar
    32    16    17    1
    33    16    21   ar
    34    17    18   am
    35    17    19    2
    36    17    20    2
    37    18    37    1
    38    18    38    1
    39    21    39    1
@<TRIPOS>SUBSTRUCTURE
     1 ZINC001143596311        1 TEMP              0 ****  ****    0 ROOT


##########                                Name:    ZINC000151820600
##########                DOCK_Rotatable_Bonds:                  10
##########                         Heavy_Atoms:                  25
##########                    Molecular_Weight:             388.915
##########                DOCK_Rotatable_Bonds:                  10
##########                       Formal_Charge:           0.0499998
##########                     HBond_Acceptors:                   8
##########                        HBond_Donors:                   2
##########                         Heavy_Atoms:                  25
##########                          Grid_Score:          -35.870514
##########                     Grid_vdw_energy:          -32.517197
##########                      Grid_es_energy:           -3.353317
##########           Internal_energy_repulsive:           37.400349

@<TRIPOS>MOLECULE
ZINC000151820600
 50 50 1 0 0
SMALL
USER_CHARGES


@<TRIPOS>ATOM
      1 C1         -0.9794    2.3827   59.9619 C.3     1  ZINC000151820600   -0.4900
      2 S2         -1.0448    1.9190   58.2094 S.o     1  ZINC000151820600    1.2500
      3 O3          0.1361    2.3652   57.5569 O.2     1  ZINC000151820600   -0.8500
      4 C4         -2.4686    2.8580   57.5918 C.3     1  ZINC000151820600   -0.4500
      5 C5         -2.6609    2.5711   56.1013 C.3     1  ZINC000151820600   -0.1100
      6 C6         -3.8492    3.3790   55.5755 C.3     1  ZINC000151820600    0.1200
      7 N7         -3.9774    3.1748   54.1305 N.am    1  ZINC000151820600   -0.7200
      8 C8         -3.2141    3.8877   53.2788 C.2     1  ZINC000151820600    0.5200
      9 O9         -2.4219    4.6994   53.7086 O.2     1  ZINC000151820600   -0.5200
     10 C10        -3.3447    3.6763   51.7925 C.3     1  ZINC000151820600    0.1900
     11 H11        -3.1148    4.6059   51.2717 H       1  ZINC000151820600    0.1300
     12 N12        -2.4103    2.6325   51.3637 N.am    1  ZINC000151820600   -0.6900
     13 C13        -1.1450    2.9560   51.0306 C.2     1  ZINC000151820600    0.6600
     14 O14        -0.7796    4.1136   51.0846 O.2     1  ZINC000151820600   -0.5600
     15 O15        -0.2859    1.9965   50.6381 O.3     1  ZINC000151820600   -0.3600
     16 C16         1.0683    2.4136   50.3213 C.3     1  ZINC000151820600    0.1400
     17 C17         1.0365    3.4108   49.1613 C.3     1  ZINC000151820600   -0.1800
     18 C18         1.6973    3.0779   51.5477 C.3     1  ZINC000151820600   -0.1400
     19 C19         1.8979    1.1921   49.9211 C.3     1  ZINC000151820600   -0.1800
     20 C20        -4.7540    3.2534   51.4671 C.ar    1  ZINC000151820600   -0.1000
     21 C21        -5.7211    4.2082   51.2146 C.ar    1  ZINC000151820600   -0.0900
     22 C22        -7.0142    3.8209   50.9155 C.ar    1  ZINC000151820600   -0.1000
     23 C23        -7.3407    2.4789   50.8693 C.ar    1  ZINC000151820600   -0.1000
     24 C24        -6.3730    1.5226   51.1220 C.ar    1  ZINC000151820600   -0.0300
     25 Cl25       -6.7823   -0.1635   51.0637 Cl      1  ZINC000151820600   -0.0600
     26 C26        -5.0781    1.9106   51.4157 C.ar    1  ZINC000151820600   -0.0900
     27 H27        -0.8395    3.4603   60.0476 H       1  ZINC000151820600    0.0800
     28 H28        -1.9123    2.0976   60.4483 H       1  ZINC000151820600    0.1100
     29 H29        -0.1470    1.8690   60.4429 H       1  ZINC000151820600    0.1100
     30 H30        -3.3642    2.5609   58.1374 H       1  ZINC000151820600    0.1200
     31 H31        -2.2915    3.9236   57.7367 H       1  ZINC000151820600    0.0900
     32 H32        -1.7598    2.8545   55.5574 H       1  ZINC000151820600    0.0800
     33 H33        -2.8526    1.5077   55.9577 H       1  ZINC000151820600    0.0900
     34 H34        -4.7615    3.0480   56.0717 H       1  ZINC000151820600    0.0800
     35 H35        -3.6878    4.4374   55.7800 H       1  ZINC000151820600    0.0700
     36 H36        -4.6118    2.5264   53.7866 H       1  ZINC000151820600    0.4000
     37 H37        -2.7024    1.7085   51.3194 H       1  ZINC000151820600    0.4200
     38 H38         0.4454    4.2812   49.4464 H       1  ZINC000151820600    0.0600
     39 H39         2.0530    3.7240   48.9235 H       1  ZINC000151820600    0.0700
     40 H40         0.5883    2.9376   48.2876 H       1  ZINC000151820600    0.0900
     41 H41         1.7200    2.3676   52.3741 H       1  ZINC000151820600    0.0700
     42 H42         2.7139    3.3911   51.3099 H       1  ZINC000151820600    0.0800
     43 H43         1.1062    3.9483   51.8328 H       1  ZINC000151820600    0.0700
     44 H44         1.4497    0.7188   49.0475 H       1  ZINC000151820600    0.0900
     45 H45         2.9144    1.5053   49.6833 H       1  ZINC000151820600    0.0700
     46 H46         1.9205    0.4817   50.7476 H       1  ZINC000151820600    0.0600
     47 H47        -5.4665    5.2571   51.2513 H       1  ZINC000151820600    0.1300
     48 H48        -7.7694    4.5674   50.7183 H       1  ZINC000151820600    0.1400
     49 H49        -8.3511    2.1766   50.6365 H       1  ZINC000151820600    0.1400
     50 H50        -4.3224    1.1647   51.6129 H       1  ZINC000151820600    0.1400
@<TRIPOS>BOND
     1     1     2    1
     2     1    27    1
     3     1    28    1
     4     1    29    1
     5     2     3    2
     6     2     4    1
     7     4     5    1
     8     4    30    1
     9     4    31    1
    10     5     6    1
    11     5    32    1
    12     5    33    1
    13     6     7    1
    14     6    34    1
    15     6    35    1
    16     7     8   am
    17     7    36    1
    18     8     9    2
    19     8    10    1
    20    10    11    1
    21    10    12    1
    22    10    20    1
    23    12    13   am
    24    12    37    1
    25    13    14    2
    26    13    15    1
    27    15    16    1
    28    16    17    1
    29    16    18    1
    30    16    19    1
    31    17    38    1
    32    17    39    1
    33    17    40    1
    34    18    41    1
    35    18    42    1
    36    18    43    1
    37    19    44    1
    38    19    45    1
    39    19    46    1
    40    20    26   ar
    41    20    21   ar
    42    21    22   ar
    43    21    47    1
    44    22    23   ar
    45    22    48    1
    46    23    24   ar
    47    23    49    1
    48    24    25    1
    49    24    26   ar
    50    26    50    1
@<TRIPOS>SUBSTRUCTURE
     1 ZINC000151820600        1 TEMP              0 ****  ****    0 ROOT


##########                                Name:    ZINC001018437438
##########                DOCK_Rotatable_Bonds:                   8
##########                         Heavy_Atoms:                  24
##########                    Molecular_Weight:              333.39
##########                DOCK_Rotatable_Bonds:                   8
##########                       Formal_Charge:        -4.17233e-07
##########                     HBond_Acceptors:                   8
##########                        HBond_Donors:                   4
##########                         Heavy_Atoms:                  24
##########                          Grid_Score:          -35.865360
##########                     Grid_vdw_energy:          -34.453793
##########                      Grid_es_energy:           -1.411566
##########           Internal_energy_repulsive:           88.244064

@<TRIPOS>MOLECULE
ZINC001018437438
 47 49 1 0 0
SMALL
USER_CHARGES


@<TRIPOS>ATOM
      1 C1         -2.2645    3.1482   49.9939 C.3     1  ZINC001018437438   -0.1400
      2 C2         -3.7667    2.9750   50.2260 C.3     1  ZINC001018437438    0.1400
      3 H3         -4.3113    3.7537   49.6919 H       1  ZINC001018437438    0.0700
      4 C4         -4.2095    1.5989   49.7190 C.3     1  ZINC001018437438   -0.1300
      5 C5         -5.6802    1.3759   50.0788 C.3     1  ZINC001018437438   -0.1300
      6 C6         -5.8452    1.4063   51.6000 C.3     1  ZINC001018437438    0.1300
      7 H7         -5.2198    0.6349   52.0492 H       1  ZINC001018437438    0.1000
      8 N8         -7.2478    1.1608   51.9447 N.am    1  ZINC001018437438   -0.7200
      9 C9         -7.7063   -0.1026   52.0433 C.2     1  ZINC001018437438    0.6000
     10 O10        -6.9553   -1.0392   51.8476 O.2     1  ZINC001018437438   -0.5100
     11 C11        -9.1156   -0.3492   52.3878 C.2     1  ZINC001018437438   -0.0400
     12 C12        -9.7414   -1.5789   52.4961 C.2     1  ZINC001018437438   -0.1400
     13 C13       -11.0644   -1.2918   52.8400 C.2     1  ZINC001018437438    0.0600
     14 C14       -12.1588   -2.3005   53.0756 C.3     1  ZINC001018437438   -0.0800
     15 C15       -11.7390   -3.7301   53.4235 C.3     1  ZINC001018437438   -0.1700
     16 C16       -12.3405   -2.8259   54.5012 C.3     1  ZINC001018437438   -0.1600
     17 N17       -11.1846    0.0087   52.9221 N.2     1  ZINC001018437438   -0.2600
     18 N18       -10.0668    0.5896   52.6705 N.pl3   1  ZINC001018437438   -0.3800
     19 C19        -5.4211    2.7802   52.1283 C.3     1  ZINC001018437438    0.1000
     20 N20        -4.0571    3.0684   51.6632 N.am    1  ZINC001018437438   -0.6100
     21 C21        -3.0902    3.4070   52.5390 C.2     1  ZINC001018437438    0.5200
     22 O22        -1.9672    3.6378   52.1431 O.2     1  ZINC001018437438   -0.4800
     23 C23        -3.4043    3.4984   54.0101 C.3     1  ZINC001018437438   -0.1700
     24 C24        -2.2406    4.1251   54.7341 C.2     1  ZINC001018437438    0.5200
     25 N25        -1.4404    3.3653   55.5081 N.am    1  ZINC001018437438   -0.8600
     26 O26        -2.0241    5.3129   54.6203 O.2     1  ZINC001018437438   -0.5000
     27 H27        -1.7171    2.4325   50.6073 H       1  ZINC001018437438    0.0700
     28 H28        -2.0369    2.9741   48.9422 H       1  ZINC001018437438    0.0500
     29 H29        -1.9691    4.1613   50.2666 H       1  ZINC001018437438    0.0800
     30 H30        -4.0889    1.5539   48.6367 H       1  ZINC001018437438    0.0900
     31 H31        -3.5995    0.8256   50.1860 H       1  ZINC001018437438    0.0700
     32 H32        -6.2868    2.1637   49.6319 H       1  ZINC001018437438    0.0700
     33 H33        -6.0046    0.4077   49.6976 H       1  ZINC001018437438    0.0800
     34 H34        -7.8465    1.9077   52.1019 H       1  ZINC001018437438    0.4000
     35 H35        -9.3007   -2.5534   52.3464 H       1  ZINC001018437438    0.1700
     36 H36       -13.0550   -2.1724   52.4685 H       1  ZINC001018437438    0.1200
     37 H37       -12.3590   -4.5429   53.0450 H       1  ZINC001018437438    0.1000
     38 H38       -10.6712   -3.9410   53.4818 H       1  ZINC001018437438    0.1000
     39 H39       -11.6684   -2.4417   55.2685 H       1  ZINC001018437438    0.1000
     40 H40       -13.3561   -3.0436   54.8316 H       1  ZINC001018437438    0.1000
     41 H41        -9.9221    1.5486   52.6739 H       1  ZINC001018437438    0.4400
     42 H42        -6.1023    3.5429   51.7511 H       1  ZINC001018437438    0.0700
     43 H43        -5.4423    2.7751   53.2181 H       1  ZINC001018437438    0.0900
     44 H44        -4.2943    4.1111   54.1541 H       1  ZINC001018437438    0.1200
     45 H45        -3.5832    2.4990   54.4063 H       1  ZINC001018437438    0.1200
     46 H46        -0.6921    3.7686   55.9751 H       1  ZINC001018437438    0.4000
     47 H47        -1.6130    2.4150   55.5980 H       1  ZINC001018437438    0.4000
@<TRIPOS>BOND
     1     1     2    1
     2     1    27    1
     3     1    28    1
     4     1    29    1
     5     2     3    1
     6     2    20    1
     7     2     4    1
     8     4     5    1
     9     4    30    1
    10     4    31    1
    11     5     6    1
    12     5    32    1
    13     5    33    1
    14     6     7    1
    15     6     8    1
    16     6    19    1
    17     8     9   am
    18     8    34    1
    19     9    10    2
    20     9    11    1
    21    11    18    1
    22    11    12    2
    23    12    13    1
    24    12    35    1
    25    13    14    1
    26    13    17    2
    27    14    16    1
    28    14    15    1
    29    14    36    1
    30    15    16    1
    31    15    37    1
    32    15    38    1
    33    16    39    1
    34    16    40    1
    35    17    18    1
    36    18    41    1
    37    19    20    1
    38    19    42    1
    39    19    43    1
    40    20    21   am
    41    21    22    2
    42    21    23    1
    43    23    24    1
    44    23    44    1
    45    23    45    1
    46    24    25   am
    47    24    26    2
    48    25    46    1
    49    25    47    1
@<TRIPOS>SUBSTRUCTURE
     1 ZINC001018437438        1 TEMP              0 ****  ****    0 ROOT


##########                                Name:    ZINC000676564986
##########                DOCK_Rotatable_Bonds:                   5
##########                         Heavy_Atoms:                  25
##########                    Molecular_Weight:             347.444
##########                DOCK_Rotatable_Bonds:                   5
##########                       Formal_Charge:          -0.0100005
##########                     HBond_Acceptors:                   6
##########                        HBond_Donors:                   1
##########                         Heavy_Atoms:                  25
##########                          Grid_Score:          -35.860603
##########                     Grid_vdw_energy:          -35.366554
##########                      Grid_es_energy:           -0.494048
##########           Internal_energy_repulsive:            5.166690

@<TRIPOS>MOLECULE
ZINC000676564986
 42 45 1 0 0
SMALL
USER_CHARGES


@<TRIPOS>ATOM
      1 C1         -2.1131    3.7276   51.4115 C.3     1  ZINC000676564986    0.0800
      2 N2         -3.5108    3.3014   51.5179 N.pl3   1  ZINC000676564986   -0.4800
      3 C3         -4.5230    3.9961   52.1104 C.2     1  ZINC000676564986    0.2500
      4 N4         -5.6339    3.3237   52.0237 N.2     1  ZINC000676564986   -0.4600
      5 C5         -5.4058    2.1581   51.3721 C.ar    1  ZINC000676564986   -0.1100
      6 C6         -6.2029    1.0637   50.9963 C.ar    1  ZINC000676564986    0.5100
      7 N7         -7.5537    1.0357   51.2959 N.pl3   1  ZINC000676564986   -0.6900
      8 C8         -7.9941    1.0281   52.6931 C.3     1  ZINC000676564986    0.1700
      9 C9         -9.2270    0.1717   52.8265 C.ar    1  ZINC000676564986   -0.0800
     10 C10        -9.2020   -1.1444   52.4023 C.ar    1  ZINC000676564986   -0.1100
     11 C11       -10.3297   -1.9320   52.5230 C.ar    1  ZINC000676564986   -0.0700
     12 C12       -11.4908   -1.4007   53.0713 C.ar    1  ZINC000676564986   -0.1300
     13 S13       -12.9321   -2.4021   53.2278 S.3     1  ZINC000676564986   -0.0100
     14 C14       -12.5948   -3.3601   54.6677 C.ar    1  ZINC000676564986   -0.1000
     15 C15       -11.5178   -3.0353   55.4837 C.ar    1  ZINC000676564986   -0.1200
     16 C16       -11.2568   -3.7879   56.6115 C.ar    1  ZINC000676564986   -0.1000
     17 C17       -12.0656   -4.8638   56.9295 C.ar    1  ZINC000676564986   -0.1200
     18 C18       -13.1383   -5.1900   56.1197 C.ar    1  ZINC000676564986   -0.1000
     19 C19       -13.4085   -4.4386   54.9931 C.ar    1  ZINC000676564986   -0.1000
     20 C20       -11.5123   -0.0778   53.4965 C.ar    1  ZINC000676564986   -0.0700
     21 C21       -10.3791    0.7022   53.3780 C.ar    1  ZINC000676564986   -0.1100
     22 N22        -5.6296    0.0563   50.3460 N.ar    1  ZINC000676564986   -0.5900
     23 C23        -4.3417    0.0746   50.0555 C.ar    1  ZINC000676564986    0.3600
     24 N24        -3.5565    1.0778   50.3879 N.ar    1  ZINC000676564986   -0.5600
     25 C25        -4.0420    2.1323   51.0346 C.ar    1  ZINC000676564986    0.3000
     26 H26        -1.9761    4.2977   50.4926 H       1  ZINC000676564986    0.0800
     27 H27        -1.8574    4.3518   52.2678 H       1  ZINC000676564986    0.0900
     28 H28        -1.4661    2.8506   51.3948 H       1  ZINC000676564986    0.0900
     29 H29        -4.4185    4.9618   52.5824 H       1  ZINC000676564986    0.2200
     30 H30        -8.2090    1.0212   50.5808 H       1  ZINC000676564986    0.4200
     31 H31        -7.2009    0.6236   53.3218 H       1  ZINC000676564986    0.0800
     32 H32        -8.2233    2.0462   53.0075 H       1  ZINC000676564986    0.0800
     33 H33        -8.2993   -1.5566   51.9759 H       1  ZINC000676564986    0.1300
     34 H34       -10.3095   -2.9596   52.1912 H       1  ZINC000676564986    0.1400
     35 H35       -10.8856   -2.1955   55.2359 H       1  ZINC000676564986    0.1200
     36 H36       -10.4198   -3.5364   57.2460 H       1  ZINC000676564986    0.1300
     37 H37       -11.8588   -5.4510   57.8121 H       1  ZINC000676564986    0.1300
     38 H38       -13.7678   -6.0307   56.3709 H       1  ZINC000676564986    0.1300
     39 H39       -14.2464   -4.6936   54.3613 H       1  ZINC000676564986    0.1300
     40 H40       -12.4129    0.3384   53.9232 H       1  ZINC000676564986    0.1300
     41 H41       -10.3951    1.7303   53.7081 H       1  ZINC000676564986    0.1300
     42 H42        -3.9162   -0.7649   49.5259 H       1  ZINC000676564986    0.2000
@<TRIPOS>BOND
     1     1     2    1
     2     1    26    1
     3     1    27    1
     4     1    28    1
     5     2    25    1
     6     2     3    1
     7     3     4    2
     8     3    29    1
     9     4     5    1
    10     5    25   ar
    11     5     6   ar
    12     6     7    1
    13     6    22   ar
    14     7     8    1
    15     7    30    1
    16     8     9    1
    17     8    31    1
    18     8    32    1
    19     9    21   ar
    20     9    10   ar
    21    10    11   ar
    22    10    33    1
    23    11    12   ar
    24    11    34    1
    25    12    13    1
    26    12    20   ar
    27    13    14    1
    28    14    19   ar
    29    14    15   ar
    30    15    16   ar
    31    15    35    1
    32    16    17   ar
    33    16    36    1
    34    17    18   ar
    35    17    37    1
    36    18    19   ar
    37    18    38    1
    38    19    39    1
    39    20    21   ar
    40    20    40    1
    41    21    41    1
    42    22    23   ar
    43    23    24   ar
    44    23    42    1
    45    24    25   ar
@<TRIPOS>SUBSTRUCTURE
     1 ZINC000676564986        1 TEMP              0 ****  ****    0 ROOT


##########                                Name:    ZINC000433961694
##########                DOCK_Rotatable_Bonds:                   7
##########                         Heavy_Atoms:                  29
##########                    Molecular_Weight:             413.472
##########                DOCK_Rotatable_Bonds:                   7
##########                       Formal_Charge:          0.00999992
##########                     HBond_Acceptors:                   8
##########                        HBond_Donors:                   0
##########                         Heavy_Atoms:                  29
##########                          Grid_Score:          -35.832085
##########                     Grid_vdw_energy:          -35.025318
##########                      Grid_es_energy:           -0.806768
##########           Internal_energy_repulsive:           17.702658

@<TRIPOS>MOLECULE
ZINC000433961694
 49 52 1 0 0
SMALL
USER_CHARGES


@<TRIPOS>ATOM
      1 C1        -12.9228   -5.4993   56.5844 C.3     1  ZINC000433961694   -0.1000
      2 C2        -12.0265   -4.4326   57.1587 C.2     1  ZINC000433961694    0.1600
      3 C3        -12.0300   -3.1502   56.7161 C.2     1  ZINC000433961694   -0.3000
      4 C4        -12.8734   -2.6070   55.6459 C.2     1  ZINC000433961694    0.6200
      5 O5        -14.0609   -2.4255   55.8399 O.2     1  ZINC000433961694   -0.5100
      6 N6        -12.3330   -2.3089   54.4478 N.am    1  ZINC000433961694   -0.6100
      7 C7        -10.9158   -2.4782   54.0783 C.3     1  ZINC000433961694    0.1100
      8 C8        -10.9212   -2.6082   52.5347 C.3     1  ZINC000433961694   -0.1300
      9 C9        -12.0420   -1.6098   52.1419 C.3     1  ZINC000433961694    0.0800
     10 H10       -11.6547   -0.5916   52.1016 H       1  ZINC000433961694    0.1000
     11 O11       -12.6291   -1.9752   50.8914 O.3     1  ZINC000433961694   -0.2900
     12 C12       -13.5905   -1.1535   50.3985 C.ar    1  ZINC000433961694    0.1700
     13 C13       -13.9731   -0.0068   51.0899 C.ar    1  ZINC000433961694   -0.2600
     14 C14       -14.9542    0.8028   50.5555 C.ar    1  ZINC000433961694    0.1400
     15 N15       -15.5271    0.5017   49.4055 N.ar    1  ZINC000433961694   -0.5100
     16 C16       -15.1918   -0.5756   48.7211 C.ar    1  ZINC000433961694    0.1400
     17 C17       -14.2153   -1.4326   49.1856 C.ar    1  ZINC000433961694   -0.2000
     18 C18       -13.0603   -1.7671   53.2906 C.3     1  ZINC000433961694    0.0600
     19 S19       -10.8404   -2.2540   57.6577 S.3     1  ZINC000433961694    0.2100
     20 C20       -10.4602   -3.6677   58.5404 C.2     1  ZINC000433961694    0.0400
     21 C21        -9.4355   -3.7439   59.6428 C.3     1  ZINC000433961694    0.1400
     22 O22       -10.0480   -3.3996   60.8871 O.3     1  ZINC000433961694   -0.3000
     23 C23       -10.2732   -2.0792   61.1196 C.ar    1  ZINC000433961694    0.1200
     24 C24        -9.2681   -1.2872   61.6548 C.ar    1  ZINC000433961694   -0.1800
     25 C25        -9.4984    0.0544   61.8905 C.ar    1  ZINC000433961694   -0.1100
     26 C26       -10.7320    0.6084   61.5933 C.ar    1  ZINC000433961694    0.0600
     27 F27       -10.9560    1.9205   61.8247 F       1  ZINC000433961694   -0.1400
     28 C28       -11.7360   -0.1809   61.0586 C.ar    1  ZINC000433961694   -0.1100
     29 C29       -11.5066   -1.5215   60.8165 C.ar    1  ZINC000433961694   -0.1200
     30 N30       -11.1809   -4.6621   58.1317 N.2     1  ZINC000433961694   -0.4500
     31 H31       -13.8644   -5.5170   57.1334 H       1  ZINC000433961694    0.0800
     32 H32       -13.1186   -5.2828   55.5343 H       1  ZINC000433961694    0.1000
     33 H33       -12.4339   -6.4697   56.6703 H       1  ZINC000433961694    0.0800
     34 H34       -10.3374   -1.6062   54.3836 H       1  ZINC000433961694    0.0800
     35 H35       -10.5104   -3.3817   54.5337 H       1  ZINC000433961694    0.1000
     36 H36        -9.9625   -2.3050   52.1138 H       1  ZINC000433961694    0.1000
     37 H37       -11.1769   -3.6228   52.2290 H       1  ZINC000433961694    0.1000
     38 H38       -13.5084    0.2451   52.0318 H       1  ZINC000433961694    0.1400
     39 H39       -15.2574    1.6938   51.0852 H       1  ZINC000433961694    0.1600
     40 H40       -15.6847   -0.7867   47.7837 H       1  ZINC000433961694    0.1700
     41 H41       -13.9453   -2.3125   48.6204 H       1  ZINC000433961694    0.1400
     42 H42       -13.8537   -2.4520   52.9914 H       1  ZINC000433961694    0.0900
     43 H43       -13.4832   -0.7957   53.5467 H       1  ZINC000433961694    0.0800
     44 H44        -9.0393   -4.7577   59.7012 H       1  ZINC000433961694    0.0900
     45 H45        -8.6233   -3.0480   59.4327 H       1  ZINC000433961694    0.1000
     46 H46        -8.3061   -1.7192   61.8874 H       1  ZINC000433961694    0.1400
     47 H47        -8.7160    0.6713   62.3072 H       1  ZINC000433961694    0.1400
     48 H48       -12.6977    0.2526   60.8269 H       1  ZINC000433961694    0.1500
     49 H49       -12.2899   -2.1370   60.3994 H       1  ZINC000433961694    0.1400
@<TRIPOS>BOND
     1     1     2    1
     2     1    31    1
     3     1    32    1
     4     1    33    1
     5     2    30    1
     6     2     3    2
     7     3     4    1
     8     3    19    1
     9     4     5    2
    10     4     6   am
    11     6    18    1
    12     6     7    1
    13     7     8    1
    14     7    34    1
    15     7    35    1
    16     8     9    1
    17     8    36    1
    18     8    37    1
    19     9    10    1
    20     9    11    1
    21     9    18    1
    22    11    12    1
    23    12    17   ar
    24    12    13   ar
    25    13    14   ar
    26    13    38    1
    27    14    15   ar
    28    14    39    1
    29    15    16   ar
    30    16    17   ar
    31    16    40    1
    32    17    41    1
    33    18    42    1
    34    18    43    1
    35    19    20    1
    36    20    21    1
    37    20    30    2
    38    21    22    1
    39    21    44    1
    40    21    45    1
    41    22    23    1
    42    23    29   ar
    43    23    24   ar
    44    24    25   ar
    45    24    46    1
    46    25    26   ar
    47    25    47    1
    48    26    27    1
    49    26    28   ar
    50    28    29   ar
    51    28    48    1
    52    29    49    1
@<TRIPOS>SUBSTRUCTURE
     1 ZINC000433961694        1 TEMP              0 ****  ****    0 ROOT


##########                                Name:    ZINC001341052241
##########                DOCK_Rotatable_Bonds:                   7
##########                         Heavy_Atoms:                  24
##########                    Molecular_Weight:             336.478
##########                DOCK_Rotatable_Bonds:                   7
##########                       Formal_Charge:         5.96046e-08
##########                     HBond_Acceptors:                   6
##########                        HBond_Donors:                   0
##########                         Heavy_Atoms:                  24
##########                          Grid_Score:          -35.805988
##########                     Grid_vdw_energy:          -34.376972
##########                      Grid_es_energy:           -1.429017
##########           Internal_energy_repulsive:           10.197821

@<TRIPOS>MOLECULE
ZINC001341052241
 56 58 1 0 0
SMALL
USER_CHARGES


@<TRIPOS>ATOM
      1 C1         -9.4322    2.5186   55.4123 C.3     1  ZINC001341052241   -0.1700
      2 C2         -8.5585    1.2766   55.2256 C.3     1  ZINC001341052241    0.1100
      3 N3         -9.1128    0.4463   54.1534 N.pl3   1  ZINC001341052241   -0.4500
      4 C4        -10.1999   -0.3798   54.2273 C.2     1  ZINC001341052241    0.1800
      5 C5        -11.0654   -0.6110   55.4391 C.3     1  ZINC001341052241    0.1500
      6 O6        -11.0055   -1.9894   55.8112 O.3     1  ZINC001341052241   -0.3700
      7 C7        -12.2847   -2.5910   56.0208 C.3     1  ZINC001341052241    0.0900
      8 C8        -12.1169   -3.8757   56.8344 C.3     1  ZINC001341052241   -0.1400
      9 C9        -13.4865   -4.5197   57.0588 C.3     1  ZINC001341052241   -0.1200
     10 C10       -14.1218   -4.8515   55.7070 C.3     1  ZINC001341052241   -0.1200
     11 C11       -14.2895   -3.5667   54.8933 C.3     1  ZINC001341052241   -0.1200
     12 C12       -12.9198   -2.9227   54.6689 C.3     1  ZINC001341052241   -0.1200
     13 N13       -10.3492   -0.9295   53.0554 N.2     1  ZINC001341052241   -0.2600
     14 N14        -9.4409   -0.5058   52.2508 N.2     1  ZINC001341052241   -0.3100
     15 C15        -8.6510    0.3366   52.8741 C.2     1  ZINC001341052241    0.3500
     16 N16        -7.5582    0.9951   52.3335 N.3     1  ZINC001341052241   -0.4600
     17 C17        -6.7950    0.1077   51.4465 C.3     1  ZINC001341052241    0.0700
     18 C18        -5.5211    0.8188   50.9844 C.3     1  ZINC001341052241   -0.1100
     19 C19        -5.8999    2.1059   50.2466 C.3     1  ZINC001341052241   -0.0900
     20 C20        -4.6292    2.8523   49.8352 C.3     1  ZINC001341052241    0.0700
     21 O21        -3.4853    2.1562   50.3342 O.3     1  ZINC001341052241   -0.3900
     22 C22        -2.6672    2.9349   51.2096 C.3     1  ZINC001341052241    0.0300
     23 C23        -6.7349    2.9909   51.1762 C.3     1  ZINC001341052241   -0.1100
     24 C24        -7.9736    2.2169   51.6327 C.3     1  ZINC001341052241    0.0700
     25 H25        -9.4625    3.0848   54.4815 H       1  ZINC001341052241    0.0600
     26 H26       -10.4426    2.2143   55.6856 H       1  ZINC001341052241    0.0700
     27 H27        -9.0140    3.1415   56.2032 H       1  ZINC001341052241    0.0800
     28 H28        -8.5366    0.7049   56.1534 H       1  ZINC001341052241    0.0900
     29 H29        -7.5455    1.5811   54.9626 H       1  ZINC001341052241    0.1000
     30 H30       -10.7068    0.0040   56.2644 H       1  ZINC001341052241    0.0900
     31 H31       -12.0957   -0.3419   55.2063 H       1  ZINC001341052241    0.0700
     32 H32       -12.9274   -1.8981   56.5639 H       1  ZINC001341052241    0.0600
     33 H33       -11.4742   -4.5686   56.2912 H       1  ZINC001341052241    0.0700
     34 H34       -11.6645   -3.6394   57.7975 H       1  ZINC001341052241    0.0700
     35 H35       -14.1292   -3.8270   57.6020 H       1  ZINC001341052241    0.0600
     36 H36       -13.3670   -5.4351   57.6385 H       1  ZINC001341052241    0.0700
     37 H37       -15.0975   -5.3104   55.8669 H       1  ZINC001341052241    0.0600
     38 H38       -13.4790   -5.5443   55.1638 H       1  ZINC001341052241    0.0600
     39 H39       -14.9322   -2.8739   55.4365 H       1  ZINC001341052241    0.0600
     40 H40       -14.7420   -3.8031   53.9303 H       1  ZINC001341052241    0.0700
     41 H41       -13.0394   -2.0073   54.0892 H       1  ZINC001341052241    0.0700
     42 H42       -12.2772   -3.6155   54.1257 H       1  ZINC001341052241    0.0700
     43 H43        -7.4028   -0.1489   50.5789 H       1  ZINC001341052241    0.0600
     44 H44        -6.5283   -0.8018   51.9847 H       1  ZINC001341052241    0.0800
     45 H45        -4.9627    0.1658   50.3138 H       1  ZINC001341052241    0.0800
     46 H46        -4.9062    1.0634   51.8506 H       1  ZINC001341052241    0.0800
     47 H47        -6.4811    1.8589   49.3582 H       1  ZINC001341052241    0.0800
     48 H48        -4.6500    3.8605   50.2491 H       1  ZINC001341052241    0.0500
     49 H49        -4.5756    2.9069   48.7480 H       1  ZINC001341052241    0.0500
     50 H50        -2.3025    3.8146   50.6794 H       1  ZINC001341052241    0.0400
     51 H51        -1.8206    2.3356   51.5446 H       1  ZINC001341052241    0.0900
     52 H52        -3.2546    3.2484   52.0727 H       1  ZINC001341052241    0.0400
     53 H53        -6.1391    3.2697   52.0453 H       1  ZINC001341052241    0.0700
     54 H54        -7.0436    3.8897   50.6424 H       1  ZINC001341052241    0.0800
     55 H55        -8.5760    1.9504   50.7642 H       1  ZINC001341052241    0.0600
     56 H56        -8.5630    2.8392   52.3061 H       1  ZINC001341052241    0.0800
@<TRIPOS>BOND
     1     1     2    1
     2     1    25    1
     3     1    26    1
     4     1    27    1
     5     2     3    1
     6     2    28    1
     7     2    29    1
     8     3    15    1
     9     3     4    1
    10     4     5    1
    11     4    13    2
    12     5     6    1
    13     5    30    1
    14     5    31    1
    15     6     7    1
    16     7    12    1
    17     7     8    1
    18     7    32    1
    19     8     9    1
    20     8    33    1
    21     8    34    1
    22     9    10    1
    23     9    35    1
    24     9    36    1
    25    10    11    1
    26    10    37    1
    27    10    38    1
    28    11    12    1
    29    11    39    1
    30    11    40    1
    31    12    41    1
    32    12    42    1
    33    13    14    1
    34    14    15    2
    35    15    16    1
    36    16    24    1
    37    16    17    1
    38    17    18    1
    39    17    43    1
    40    17    44    1
    41    18    19    1
    42    18    45    1
    43    18    46    1
    44    19    20    1
    45    19    23    1
    46    19    47    1
    47    20    21    1
    48    20    48    1
    49    20    49    1
    50    21    22    1
    51    22    50    1
    52    22    51    1
    53    22    52    1
    54    23    24    1
    55    23    53    1
    56    23    54    1
    57    24    55    1
    58    24    56    1
@<TRIPOS>SUBSTRUCTURE
     1 ZINC001341052241        1 TEMP              0 ****  ****    0 ROOT


##########                                Name:    ZINC000484424341
##########                DOCK_Rotatable_Bonds:                   7
##########                         Heavy_Atoms:                  26
##########                    Molecular_Weight:             359.425
##########                DOCK_Rotatable_Bonds:                   7
##########                       Formal_Charge:          -0.0100009
##########                     HBond_Acceptors:                   7
##########                        HBond_Donors:                   1
##########                         Heavy_Atoms:                  26
##########                          Grid_Score:          -35.751427
##########                     Grid_vdw_energy:          -33.690159
##########                      Grid_es_energy:           -2.061268
##########           Internal_energy_repulsive:           14.614957

@<TRIPOS>MOLECULE
ZINC000484424341
 51 53 1 0 0
SMALL
USER_CHARGES


@<TRIPOS>ATOM
      1 C1          2.4799    1.2583   50.8175 C.3     1  ZINC000484424341    0.0300
      2 O2          2.6421    1.9219   49.5624 O.3     1  ZINC000484424341   -0.3800
      3 C3          1.4570    1.9542   48.7645 C.3     1  ZINC000484424341    0.1300
      4 H4          1.1456    0.9351   48.5352 H       1  ZINC000484424341    0.0700
      5 C5          1.7391    2.7065   47.4625 C.3     1  ZINC000484424341   -0.1700
      6 C6          0.3600    2.6560   49.5227 C.ar    1  ZINC000484424341   -0.0700
      7 C7          0.4717    4.0041   49.8093 C.ar    1  ZINC000484424341   -0.1000
      8 C8         -0.5328    4.6522   50.5049 C.ar    1  ZINC000484424341   -0.1000
      9 C9         -1.6512    3.9545   50.9158 C.ar    1  ZINC000484424341   -0.1100
     10 C10        -1.7669    2.5997   50.6295 C.ar    1  ZINC000484424341    0.1400
     11 N11        -2.8974    1.8907   51.0433 N.am    1  ZINC000484424341   -0.6400
     12 C12        -3.9094    1.6726   50.1803 C.2     1  ZINC000484424341    0.5100
     13 O13        -3.8386    2.0921   49.0435 O.2     1  ZINC000484424341   -0.4900
     14 C14        -5.1179    0.9147   50.6227 C.2     1  ZINC000484424341    0.5200
     15 O15        -5.3519   -0.1807   50.1556 O.2     1  ZINC000484424341   -0.5200
     16 N16        -5.9487    1.4473   51.5407 N.am    1  ZINC000484424341   -0.5800
     17 C17        -5.7857    2.7585   52.1855 C.3     1  ZINC000484424341    0.1100
     18 C18        -6.9847    2.9532   53.1375 C.3     1  ZINC000484424341   -0.1500
     19 C19        -8.0514    1.9890   52.5544 C.3     1  ZINC000484424341    0.1500
     20 H20        -8.5837    2.4518   51.7233 H       1  ZINC000484424341    0.1100
     21 N21        -8.9861    1.5497   53.5934 N.am    1  ZINC000484424341   -0.6100
     22 C22        -8.6162    1.3127   54.9937 C.3     1  ZINC000484424341    0.1000
     23 C23        -9.9484    1.3018   55.7757 C.3     1  ZINC000484424341   -0.1300
     24 C24       -10.9548    0.8853   54.6782 C.3     1  ZINC000484424341   -0.1600
     25 C25       -10.2941    1.3174   53.3878 C.2     1  ZINC000484424341    0.5200
     26 O26       -10.8604    1.4306   52.3214 O.2     1  ZINC000484424341   -0.5200
     27 C27        -7.1748    0.8144   52.0598 C.3     1  ZINC000484424341    0.0900
     28 C28        -0.7587    1.9532   49.9258 C.ar    1  ZINC000484424341   -0.1300
     29 H29         2.1795    0.2247   50.6458 H       1  ZINC000484424341    0.0400
     30 H30         3.4236    1.2767   51.3628 H       1  ZINC000484424341    0.0900
     31 H31         1.7130    1.7675   51.4012 H       1  ZINC000484424341    0.0400
     32 H32         2.0504    3.7256   47.6919 H       1  ZINC000484424341    0.0700
     33 H33         2.5325    2.1989   46.9141 H       1  ZINC000484424341    0.0600
     34 H34         0.8350    2.7312   46.8540 H       1  ZINC000484424341    0.0700
     35 H35         1.3456    4.5522   49.4895 H       1  ZINC000484424341    0.1300
     36 H36        -0.4420    5.7052   50.7274 H       1  ZINC000484424341    0.1300
     37 H37        -2.4350    4.4611   51.4592 H       1  ZINC000484424341    0.1300
     38 H38        -2.9540    1.5553   51.9518 H       1  ZINC000484424341    0.4200
     39 H39        -4.8550    2.7796   52.7524 H       1  ZINC000484424341    0.0800
     40 H40        -5.7803    3.5448   51.4306 H       1  ZINC000484424341    0.0800
     41 H41        -6.7200    2.6655   54.1549 H       1  ZINC000484424341    0.0900
     42 H42        -7.3384    3.9837   53.1064 H       1  ZINC000484424341    0.0900
     43 H43        -8.1125    0.3512   55.0933 H       1  ZINC000484424341    0.0800
     44 H44        -7.9733    2.1154   55.3550 H       1  ZINC000484424341    0.0800
     45 H45        -9.9224    0.5670   56.5804 H       1  ZINC000484424341    0.0900
     46 H46       -10.1816    2.2938   56.1628 H       1  ZINC000484424341    0.0800
     47 H47       -11.1075   -0.1939   54.6904 H       1  ZINC000484424341    0.1100
     48 H48       -11.9024    1.4071   54.8117 H       1  ZINC000484424341    0.1000
     49 H49        -7.6865    0.2656   51.2692 H       1  ZINC000484424341    0.0900
     50 H50        -6.9303    0.1487   52.8876 H       1  ZINC000484424341    0.0900
     51 H51        -0.8456    0.9004   49.7013 H       1  ZINC000484424341    0.1300
@<TRIPOS>BOND
     1     1     2    1
     2     1    29    1
     3     1    30    1
     4     1    31    1
     5     2     3    1
     6     3     4    1
     7     3     5    1
     8     3     6    1
     9     5    32    1
    10     5    33    1
    11     5    34    1
    12     6    28   ar
    13     6     7   ar
    14     7     8   ar
    15     7    35    1
    16     8     9   ar
    17     8    36    1
    18     9    10   ar
    19     9    37    1
    20    10    11    1
    21    10    28   ar
    22    11    12   am
    23    11    38    1
    24    12    13    2
    25    12    14    1
    26    14    15    2
    27    14    16   am
    28    16    27    1
    29    16    17    1
    30    17    18    1
    31    17    39    1
    32    17    40    1
    33    18    19    1
    34    18    41    1
    35    18    42    1
    36    19    20    1
    37    19    21    1
    38    19    27    1
    39    21    25   am
    40    21    22    1
    41    22    23    1
    42    22    43    1
    43    22    44    1
    44    23    24    1
    45    23    45    1
    46    23    46    1
    47    24    25    1
    48    24    47    1
    49    24    48    1
    50    25    26    2
    51    27    49    1
    52    27    50    1
    53    28    51    1
@<TRIPOS>SUBSTRUCTURE
     1 ZINC000484424341        1 TEMP              0 ****  ****    0 ROOT


##########                                Name:    ZINC001707804910
##########                DOCK_Rotatable_Bonds:                   4
##########                         Heavy_Atoms:                  26
##########                    Molecular_Weight:             358.403
##########                DOCK_Rotatable_Bonds:                   4
##########                       Formal_Charge:          -0.0399996
##########                     HBond_Acceptors:                  10
##########                        HBond_Donors:                   0
##########                         Heavy_Atoms:                  26
##########                          Grid_Score:          -35.747555
##########                     Grid_vdw_energy:          -34.847103
##########                      Grid_es_energy:           -0.900452
##########           Internal_energy_repulsive:            7.240673

@<TRIPOS>MOLECULE
ZINC001707804910
 48 51 1 0 0
SMALL
USER_CHARGES


@<TRIPOS>ATOM
      1 C1         -8.9234    0.9708   55.6344 C.3     1  ZINC001707804910   -0.0700
      2 C2        -10.0973    0.5323   56.4715 C.2     1  ZINC001707804910    0.0700
      3 N3        -11.2803    1.0910   56.4862 N.2     1  ZINC001707804910   -0.2800
      4 N4        -12.0849    0.3884   57.3925 N.pl3   1  ZINC001707804910   -0.3700
      5 C5        -13.4838    0.6840   57.7120 C.3     1  ZINC001707804910    0.0900
      6 C6        -11.3439   -0.6089   57.9192 C.2     1  ZINC001707804910    0.0500
      7 C7        -11.8070   -1.6162   58.9400 C.3     1  ZINC001707804910    0.1800
      8 N8        -11.1703   -2.9085   58.6746 N.pl3   1  ZINC001707804910   -0.4600
      9 C9        -10.0399   -3.4076   59.2601 C.2     1  ZINC001707804910    0.1900
     10 C10        -9.2033   -2.7258   60.3120 C.3     1  ZINC001707804910   -0.0700
     11 N11        -9.8205   -4.5821   58.7405 N.2     1  ZINC001707804910   -0.2800
     12 N12       -10.7284   -4.8570   57.8732 N.2     1  ZINC001707804910   -0.3000
     13 C13       -11.5856   -3.8665   57.7961 C.2     1  ZINC001707804910    0.3500
     14 N14       -12.6978   -3.8019   56.9719 N.3     1  ZINC001707804910   -0.4600
     15 C15       -13.3330   -5.1210   56.8398 C.3     1  ZINC001707804910    0.0200
     16 C16       -14.5878   -4.9926   55.9722 C.3     1  ZINC001707804910    0.0700
     17 O17       -14.2299   -4.4347   54.7048 O.3     1  ZINC001707804910   -0.3600
     18 C18       -13.6092   -3.1496   54.7962 C.3     1  ZINC001707804910    0.2000
     19 H19       -14.3002   -2.4435   55.2568 H       1  ZINC001707804910    0.1000
     20 C20       -13.2436   -2.6681   53.4157 C.2     1  ZINC001707804910    0.1600
     21 N21       -12.0727   -2.7602   52.8522 N.2     1  ZINC001707804910   -0.2500
     22 N22       -12.1246   -2.2470   51.6734 N.2     1  ZINC001707804910   -0.2900
     23 C23       -13.3304   -1.8100   51.4450 C.2     1  ZINC001707804910    0.1700
     24 C24       -13.8123   -1.1404   50.1838 C.3     1  ZINC001707804910   -0.0600
     25 O25       -14.0668   -2.0702   52.5383 O.3     1  ZINC001707804910   -0.2200
     26 C26       -12.3445   -3.2593   55.6520 C.3     1  ZINC001707804910    0.0400
     27 C27       -10.1122   -0.5458   57.3625 C.2     1  ZINC001707804910   -0.2300
     28 H28        -8.9485    0.4545   54.6749 H       1  ZINC001707804910    0.0800
     29 H29        -8.9765    2.0470   55.4695 H       1  ZINC001707804910    0.0700
     30 H30        -7.9962    0.7281   56.1535 H       1  ZINC001707804910    0.0800
     31 H31       -14.1323    0.2175   56.9704 H       1  ZINC001707804910    0.0800
     32 H32       -13.7214    0.2915   58.7007 H       1  ZINC001707804910    0.0900
     33 H33       -13.6384    1.7629   57.7026 H       1  ZINC001707804910    0.0900
     34 H34       -11.5330   -1.2742   59.9381 H       1  ZINC001707804910    0.1100
     35 H35       -12.8898   -1.7250   58.8778 H       1  ZINC001707804910    0.1200
     36 H36        -9.6366   -2.9084   61.2954 H       1  ZINC001707804910    0.0900
     37 H37        -8.1886   -3.1227   60.2827 H       1  ZINC001707804910    0.1000
     38 H38        -9.1797   -1.6534   60.1187 H       1  ZINC001707804910    0.0700
     39 H39       -12.6358   -5.8155   56.3710 H       1  ZINC001707804910    0.0700
     40 H40       -13.6093   -5.4924   57.8267 H       1  ZINC001707804910    0.0900
     41 H41       -15.0304   -5.9778   55.8242 H       1  ZINC001707804910    0.1200
     42 H42       -15.3073   -4.3403   56.4669 H       1  ZINC001707804910    0.0700
     43 H43       -14.1867   -1.8950   49.4921 H       1  ZINC001707804910    0.1000
     44 H44       -14.6124   -0.4411   50.4265 H       1  ZINC001707804910    0.1000
     45 H45       -12.9863   -0.6008   49.7205 H       1  ZINC001707804910    0.1100
     46 H46       -11.8993   -2.2716   55.7717 H       1  ZINC001707804910    0.1000
     47 H47       -11.6315   -3.9239   55.1642 H       1  ZINC001707804910    0.0800
     48 H48        -9.2849   -1.2071   57.5736 H       1  ZINC001707804910    0.1500
@<TRIPOS>BOND
     1     1     2    1
     2     1    28    1
     3     1    29    1
     4     1    30    1
     5     2    27    1
     6     2     3    2
     7     3     4    1
     8     4     5    1
     9     4     6    1
    10     5    31    1
    11     5    32    1
    12     5    33    1
    13     6     7    1
    14     6    27    2
    15     7     8    1
    16     7    34    1
    17     7    35    1
    18     8    13    1
    19     8     9    1
    20     9    10    1
    21     9    11    2
    22    10    36    1
    23    10    37    1
    24    10    38    1
    25    11    12    1
    26    12    13    2
    27    13    14    1
    28    14    26    1
    29    14    15    1
    30    15    16    1
    31    15    39    1
    32    15    40    1
    33    16    17    1
    34    16    41    1
    35    16    42    1
    36    17    18    1
    37    18    19    1
    38    18    20    1
    39    18    26    1
    40    20    25    1
    41    20    21    2
    42    21    22    1
    43    22    23    2
    44    23    24    1
    45    23    25    1
    46    24    43    1
    47    24    44    1
    48    24    45    1
    49    26    46    1
    50    26    47    1
    51    27    48    1
@<TRIPOS>SUBSTRUCTURE
     1 ZINC001707804910        1 TEMP              0 ****  ****    0 ROOT


##########                                Name:    ZINC000265786263
##########                DOCK_Rotatable_Bonds:                   7
##########                         Heavy_Atoms:                  28
##########                    Molecular_Weight:             386.451
##########                DOCK_Rotatable_Bonds:                   7
##########                       Formal_Charge:           0.0499992
##########                     HBond_Acceptors:                   8
##########                        HBond_Donors:                   2
##########                         Heavy_Atoms:                  28
##########                          Grid_Score:          -35.741360
##########                     Grid_vdw_energy:          -34.772259
##########                      Grid_es_energy:           -0.969101
##########           Internal_energy_repulsive:           20.383699

@<TRIPOS>MOLECULE
ZINC000265786263
 54 57 1 0 0
SMALL
USER_CHARGES


@<TRIPOS>ATOM
      1 C1         -3.5423    2.9478   52.9671 C.3     1  ZINC000265786263   -0.1500
      2 C2         -4.4284    2.6526   51.7551 C.3     1  ZINC000265786263    0.1600
      3 C3         -3.7865    3.1947   50.4764 C.3     1  ZINC000265786263   -0.1600
      4 C4         -2.7831    2.2942   49.7531 C.3     1  ZINC000265786263   -0.1600
      5 C5         -4.1718    2.5270   49.1548 C.3     1  ZINC000265786263   -0.1600
      6 N6         -4.6821    1.2063   51.6387 N.am    1  ZINC000265786263   -0.7100
      7 C7         -6.0119    1.0385   51.7534 C.2     1  ZINC000265786263    0.7100
      8 O8         -6.5633   -0.0434   51.7018 O.2     1  ZINC000265786263   -0.5400
      9 N9         -6.6597    2.1957   51.9304 N.am    1  ZINC000265786263   -0.5600
     10 C10        -8.1120    2.3105   52.0855 C.3     1  ZINC000265786263    0.1000
     11 C11        -8.7104    2.8635   50.8178 C.2     1  ZINC000265786263    0.5100
     12 O12        -8.0421    2.9232   49.8075 O.2     1  ZINC000265786263   -0.5300
     13 N13        -9.9883    3.2917   50.8068 N.am    1  ZINC000265786263   -0.6100
     14 C14       -10.5944    3.8275   49.5784 C.3     1  ZINC000265786263    0.1100
     15 C15       -11.9228    3.1033   49.3351 C.3     1  ZINC000265786263    0.0400
     16 N16       -12.7606    3.2067   50.5373 N.3     1  ZINC000265786263   -0.5300
     17 C17       -14.1073    2.6756   50.2878 C.3     1  ZINC000265786263    0.0900
     18 C18       -14.0098    1.2249   49.8918 C.ar    1  ZINC000265786263   -0.0600
     19 C19       -13.8254    0.8819   48.5654 C.ar    1  ZINC000265786263   -0.1300
     20 C20       -13.7356   -0.4484   48.1987 C.ar    1  ZINC000265786263   -0.1000
     21 C21       -13.8299   -1.4381   49.1576 C.ar    1  ZINC000265786263   -0.1400
     22 C22       -14.0150   -1.0965   50.4896 C.ar    1  ZINC000265786263    0.1100
     23 O23       -14.1078   -2.0684   51.4349 O.3     1  ZINC000265786263   -0.5000
     24 C24       -14.0992    0.2388   50.8555 C.ar    1  ZINC000265786263   -0.1200
     25 C25       -12.1336    2.5346   51.6831 C.3     1  ZINC000265786263    0.0400
     26 C26       -10.8157    3.2297   52.0212 C.3     1  ZINC000265786263    0.1200
     27 C27        -5.8112    3.2425   51.9492 C.2     1  ZINC000265786263    0.5400
     28 O28        -6.0947    4.4125   52.0923 O.2     1  ZINC000265786263   -0.4500
     29 H29        -3.9967    2.5220   53.8617 H       1  ZINC000265786263    0.0700
     30 H30        -2.5580    2.5056   52.8138 H       1  ZINC000265786263    0.0800
     31 H31        -3.4411    4.0262   53.0891 H       1  ZINC000265786263    0.0900
     32 H32        -3.6008    4.2686   50.4624 H       1  ZINC000265786263    0.1100
     33 H33        -1.9368    2.7758   49.2632 H       1  ZINC000265786263    0.1000
     34 H34        -2.5801    1.3156   50.1883 H       1  ZINC000265786263    0.1100
     35 H35        -4.8825    1.7016   49.1962 H       1  ZINC000265786263    0.1000
     36 H36        -4.2391    3.1618   48.2712 H       1  ZINC000265786263    0.1000
     37 H37        -4.0196    0.5106   51.5048 H       1  ZINC000265786263    0.4400
     38 H38        -8.5347    1.3264   52.2878 H       1  ZINC000265786263    0.1300
     39 H39        -8.3368    2.9801   52.9157 H       1  ZINC000265786263    0.1300
     40 H40       -10.7759    4.8958   49.6956 H       1  ZINC000265786263    0.0900
     41 H41        -9.9247    3.6573   48.7354 H       1  ZINC000265786263    0.0900
     42 H42       -12.4384    3.5628   48.4919 H       1  ZINC000265786263    0.0900
     43 H43       -11.7297    2.0532   49.1155 H       1  ZINC000265786263    0.0400
     44 H44       -14.7068    2.7655   51.1937 H       1  ZINC000265786263    0.0900
     45 H45       -14.5775    3.2411   49.4833 H       1  ZINC000265786263    0.0500
     46 H46       -13.7517    1.6543   47.8140 H       1  ZINC000265786263    0.1200
     47 H47       -13.5918   -0.7137   47.1618 H       1  ZINC000265786263    0.1300
     48 H48       -13.7600   -2.4770   48.8706 H       1  ZINC000265786263    0.1300
     49 H49       -14.2351   -1.7329   52.3329 H       1  ZINC000265786263    0.3900
     50 H50       -14.2433    0.5072   51.8917 H       1  ZINC000265786263    0.1300
     51 H51       -12.8021    2.5815   52.5428 H       1  ZINC000265786263    0.1000
     52 H52       -11.9376    1.4924   51.4308 H       1  ZINC000265786263    0.0400
     53 H53       -10.2926    2.6668   52.7943 H       1  ZINC000265786263    0.1000
     54 H54       -11.0153    4.2419   52.3731 H       1  ZINC000265786263    0.0800
@<TRIPOS>BOND
     1     1     2    1
     2     1    29    1
     3     1    30    1
     4     1    31    1
     5     2    27    1
     6     2     3    1
     7     2     6    1
     8     3     5    1
     9     3     4    1
    10     3    32    1
    11     4     5    1
    12     4    33    1
    13     4    34    1
    14     5    35    1
    15     5    36    1
    16     6     7   am
    17     6    37    1
    18     7     8    2
    19     7     9   am
    20     9    10    1
    21     9    27   am
    22    10    11    1
    23    10    38    1
    24    10    39    1
    25    11    12    2
    26    11    13   am
    27    13    26    1
    28    13    14    1
    29    14    15    1
    30    14    40    1
    31    14    41    1
    32    15    16    1
    33    15    42    1
    34    15    43    1
    35    16    17    1
    36    16    25    1
    37    17    18    1
    38    17    44    1
    39    17    45    1
    40    18    24   ar
    41    18    19   ar
    42    19    20   ar
    43    19    46    1
    44    20    21   ar
    45    20    47    1
    46    21    22   ar
    47    21    48    1
    48    22    23    1
    49    22    24   ar
    50    23    49    1
    51    24    50    1
    52    25    26    1
    53    25    51    1
    54    25    52    1
    55    26    53    1
    56    26    54    1
    57    27    28    2
@<TRIPOS>SUBSTRUCTURE
     1 ZINC000265786263        1 TEMP              0 ****  ****    0 ROOT


##########                                Name:    ZINC000989658617
##########                DOCK_Rotatable_Bonds:                   6
##########                         Heavy_Atoms:                  24
##########                    Molecular_Weight:             334.418
##########                DOCK_Rotatable_Bonds:                   6
##########                       Formal_Charge:          -0.0100001
##########                     HBond_Acceptors:                   7
##########                        HBond_Donors:                   2
##########                         Heavy_Atoms:                  24
##########                          Grid_Score:          -35.733849
##########                     Grid_vdw_energy:          -33.741859
##########                      Grid_es_energy:           -1.991987
##########           Internal_energy_repulsive:           12.407539

@<TRIPOS>MOLECULE
ZINC000989658617
 50 52 1 0 0
SMALL
USER_CHARGES


@<TRIPOS>ATOM
      1 C1          1.5246    2.9475   54.0954 C.3     1  ZINC000989658617    0.0300
      2 O2          2.5911    3.4140   53.2664 O.3     1  ZINC000989658617   -0.3700
      3 C3          2.1884    3.7561   51.9387 C.3     1  ZINC000989658617    0.0500
      4 C4          1.3891    2.6230   51.3485 C.2     1  ZINC000989658617    0.5300
      5 O5          1.9063    1.5388   51.1814 O.2     1  ZINC000989658617   -0.5100
      6 N6          0.0996    2.8144   51.0067 N.am    1  ZINC000989658617   -0.6200
      7 C7         -0.6506    4.0748   51.1551 C.3     1  ZINC000989658617    0.1000
      8 C8         -2.1370    3.6451   51.2304 C.3     1  ZINC000989658617   -0.1500
      9 C9         -2.1712    2.4640   50.2249 C.3     1  ZINC000989658617    0.1400
     10 H10        -2.2801    2.8298   49.2038 H       1  ZINC000989658617    0.1100
     11 N11        -3.2510    1.5314   50.5572 N.am    1  ZINC000989658617   -0.7100
     12 C12        -4.5357    1.8946   50.3730 C.2     1  ZINC000989658617    0.6100
     13 O13        -4.7985    2.9967   49.9323 O.2     1  ZINC000989658617   -0.5200
     14 C14        -5.6243    0.9536   50.7064 C.2     1  ZINC000989658617   -0.0100
     15 N15        -5.8057   -0.2550   50.2020 N.2     1  ZINC000989658617   -0.2600
     16 N16        -6.8541   -0.7983   50.7173 N.pl3   1  ZINC000989658617   -0.3700
     17 C17        -7.4204    0.0405   51.6004 C.2     1  ZINC000989658617    0.0100
     18 C18        -6.6652    1.1662   51.6257 C.2     1  ZINC000989658617   -0.1400
     19 C19        -6.9517    2.3681   52.4830 C.3     1  ZINC000989658617   -0.0400
     20 C20        -8.4010    2.2717   52.9786 C.3     1  ZINC000989658617   -0.0900
     21 H21        -9.0820    2.4404   52.1444 H       1  ZINC000989658617    0.0700
     22 C22        -8.6428    3.3304   54.0562 C.3     1  ZINC000989658617   -0.1500
     23 C23        -8.6490    0.8799   53.5664 C.3     1  ZINC000989658617   -0.1100
     24 C24        -8.6526   -0.1638   52.4438 C.3     1  ZINC000989658617   -0.0500
     25 C25        -0.7901    1.8027   50.4181 C.3     1  ZINC000989658617    0.1300
     26 H26        -0.8773    0.9536   51.0958 H       1  ZINC000989658617    0.0800
     27 C27        -0.2430    1.3364   49.0675 C.3     1  ZINC000989658617   -0.1600
     28 H28         0.7640    3.7237   54.1799 H       1  ZINC000989658617    0.0500
     29 H29         1.0843    2.0541   53.6525 H       1  ZINC000989658617    0.0400
     30 H30         1.9120    2.7089   55.0859 H       1  ZINC000989658617    0.0900
     31 H31         1.5759    4.6573   51.9657 H       1  ZINC000989658617    0.0800
     32 H32         3.0718    3.9353   51.3259 H       1  ZINC000989658617    0.0800
     33 H33        -0.3565    4.5858   52.0719 H       1  ZINC000989658617    0.0800
     34 H34        -0.4853    4.7187   50.2913 H       1  ZINC000989658617    0.0800
     35 H35        -2.3965    3.3107   52.2349 H       1  ZINC000989658617    0.0800
     36 H36        -2.7940    4.4525   50.9073 H       1  ZINC000989658617    0.1000
     37 H37        -3.0413    0.6524   50.9099 H       1  ZINC000989658617    0.4100
     38 H38        -7.1858   -1.6834   50.4995 H       1  ZINC000989658617    0.4500
     39 H39        -6.2721    2.3818   53.3352 H       1  ZINC000989658617    0.0800
     40 H40        -6.8238    3.2773   51.8958 H       1  ZINC000989658617    0.0800
     41 H41        -8.4670    4.3215   53.6379 H       1  ZINC000989658617    0.0600
     42 H42        -9.6722    3.2621   54.4083 H       1  ZINC000989658617    0.0600
     43 H43        -7.9617    3.1621   54.8904 H       1  ZINC000989658617    0.0600
     44 H44        -7.8588    0.6404   54.2777 H       1  ZINC000989658617    0.0700
     45 H45        -9.6120    0.8679   54.0770 H       1  ZINC000989658617    0.0800
     46 H46        -9.5407   -0.0347   51.8252 H       1  ZINC000989658617    0.0800
     47 H47        -8.6462   -1.1654   52.8736 H       1  ZINC000989658617    0.0800
     48 H48        -0.1416    2.1929   48.4011 H       1  ZINC000989658617    0.0600
     49 H49         0.7319    0.8707   49.2117 H       1  ZINC000989658617    0.0700
     50 H50        -0.9297    0.6131   48.6275 H       1  ZINC000989658617    0.0700
@<TRIPOS>BOND
     1     1     2    1
     2     1    28    1
     3     1    29    1
     4     1    30    1
     5     2     3    1
     6     3     4    1
     7     3    31    1
     8     3    32    1
     9     4     5    2
    10     4     6   am
    11     6    25    1
    12     6     7    1
    13     7     8    1
    14     7    33    1
    15     7    34    1
    16     8     9    1
    17     8    35    1
    18     8    36    1
    19     9    10    1
    20     9    11    1
    21     9    25    1
    22    11    12   am
    23    11    37    1
    24    12    13    2
    25    12    14    1
    26    14    18    1
    27    14    15    2
    28    15    16    1
    29    16    17    1
    30    16    38    1
    31    17    24    1
    32    17    18    2
    33    18    19    1
    34    19    20    1
    35    19    39    1
    36    19    40    1
    37    20    21    1
    38    20    22    1
    39    20    23    1
    40    22    41    1
    41    22    42    1
    42    22    43    1
    43    23    24    1
    44    23    44    1
    45    23    45    1
    46    24    46    1
    47    24    47    1
    48    25    26    1
    49    25    27    1
    50    27    48    1
    51    27    49    1
    52    27    50    1
@<TRIPOS>SUBSTRUCTURE
     1 ZINC000989658617        1 TEMP              0 ****  ****    0 ROOT


##########                                Name:    ZINC000537799672
##########                DOCK_Rotatable_Bonds:                   9
##########                         Heavy_Atoms:                  29
##########                    Molecular_Weight:             401.478
##########                DOCK_Rotatable_Bonds:                   9
##########                       Formal_Charge:        -4.47035e-07
##########                     HBond_Acceptors:                   6
##########                        HBond_Donors:                   1
##########                         Heavy_Atoms:                  29
##########                          Grid_Score:          -35.729053
##########                     Grid_vdw_energy:          -33.809193
##########                      Grid_es_energy:           -1.919861
##########           Internal_energy_repulsive:           12.291027

@<TRIPOS>MOLECULE
ZINC000537799672
 57 59 1 0 0
SMALL
USER_CHARGES


@<TRIPOS>ATOM
      1 C1         -9.9051    1.3320   56.1157 C.3     1  ZINC000537799672    0.0300
      2 O2        -10.3639    0.2657   55.2823 O.3     1  ZINC000537799672   -0.3800
      3 C3        -10.8672    0.6935   54.0153 C.3     1  ZINC000537799672    0.1200
      4 H4        -11.7286    1.3438   54.1672 H       1  ZINC000537799672    0.0900
      5 C5         -9.7921    1.4482   53.2765 C.ar    1  ZINC000537799672   -0.1300
      6 C6         -8.5300    0.8999   53.1441 C.ar    1  ZINC000537799672   -0.0600
      7 C7         -7.5433    1.5911   52.4669 C.ar    1  ZINC000537799672   -0.1500
      8 C8         -7.8194    2.8330   51.9205 C.ar    1  ZINC000537799672    0.1000
      9 F9         -6.8557    3.5094   51.2579 F       1  ZINC000537799672   -0.1400
     10 C10        -9.0840    3.3810   52.0534 C.ar    1  ZINC000537799672   -0.1500
     11 C11       -10.0704    2.6858   52.7269 C.ar    1  ZINC000537799672   -0.0800
     12 C12       -11.2884   -0.5275   53.1950 C.3     1  ZINC000537799672    0.1600
     13 H13       -10.4011   -1.0321   52.8126 H       1  ZINC000537799672    0.1000
     14 C14       -12.1640   -0.0776   52.0238 C.3     1  ZINC000537799672   -0.1600
     15 N15       -12.0460   -1.4492   54.0452 N.am    1  ZINC000537799672   -0.7100
     16 C16       -11.8322   -2.7769   53.9574 C.2     1  ZINC000537799672    0.5600
     17 O17       -11.0098   -3.2096   53.1740 O.2     1  ZINC000537799672   -0.5400
     18 C18       -12.5980   -3.7073   54.8141 C.ar    1  ZINC000537799672   -0.1400
     19 C19       -13.7733   -4.2910   54.3391 C.ar    1  ZINC000537799672   -0.0800
     20 C20       -14.4830   -5.1587   55.1435 C.ar    1  ZINC000537799672   -0.1300
     21 C21       -14.0321   -5.4503   56.4185 C.ar    1  ZINC000537799672   -0.0900
     22 C22       -12.8677   -4.8747   56.8957 C.ar    1  ZINC000537799672   -0.1100
     23 C23       -12.1455   -4.0102   56.0995 C.ar    1  ZINC000537799672   -0.0300
     24 C24       -10.8774   -3.3845   56.6207 C.3     1  ZINC000537799672    0.1100
     25 O25       -10.6970   -3.7452   57.9916 O.3     1  ZINC000537799672   -0.3800
     26 C26       -10.2584   -2.6686   58.8228 C.3     1  ZINC000537799672    0.0900
     27 C27       -11.4748   -1.9471   59.4112 C.3     1  ZINC000537799672   -0.1800
     28 C28       -10.9954   -0.8467   60.3612 C.3     1  ZINC000537799672    0.0600
     29 O29       -10.1805   -1.4234   61.3837 O.3     1  ZINC000537799672   -0.3800
     30 C30        -9.0036   -2.0708   60.8959 C.3     1  ZINC000537799672    0.0600
     31 C31        -9.4030   -3.2206   59.9673 C.3     1  ZINC000537799672   -0.1500
     32 H32       -10.7060    2.0591   56.2490 H       1  ZINC000537799672    0.0500
     33 H33        -9.6106    0.9335   57.0865 H       1  ZINC000537799672    0.0900
     34 H34        -9.0487    1.8168   55.6469 H       1  ZINC000537799672    0.0400
     35 H35        -8.3149   -0.0688   53.5704 H       1  ZINC000537799672    0.1300
     36 H36        -6.5572    1.1628   52.3642 H       1  ZINC000537799672    0.1400
     37 H37        -9.3003    4.3498   51.6278 H       1  ZINC000537799672    0.1400
     38 H38       -11.0570    3.1129   52.8303 H       1  ZINC000537799672    0.1300
     39 H39       -11.6350    0.6790   51.4443 H       1  ZINC000537799672    0.0700
     40 H40       -12.3863   -0.9336   51.3865 H       1  ZINC000537799672    0.0600
     41 H41       -13.0944    0.3422   52.4059 H       1  ZINC000537799672    0.0700
     42 H42       -12.7015   -1.1039   54.6713 H       1  ZINC000537799672    0.4000
     43 H43       -14.1267   -4.0637   53.3442 H       1  ZINC000537799672    0.1300
     44 H44       -15.3927   -5.6112   54.7771 H       1  ZINC000537799672    0.1300
     45 H45       -14.5915   -6.1300   57.0442 H       1  ZINC000537799672    0.1300
     46 H46       -12.5213   -5.1060   57.8921 H       1  ZINC000537799672    0.1400
     47 H47       -10.0293   -3.7415   56.0363 H       1  ZINC000537799672    0.0800
     48 H48       -10.9461   -2.3000   56.5362 H       1  ZINC000537799672    0.0800
     49 H49        -9.6684   -1.9684   58.2314 H       1  ZINC000537799672    0.0600
     50 H50       -12.0601   -1.5036   58.6057 H       1  ZINC000537799672    0.0800
     51 H51       -12.0904   -2.6597   59.9603 H       1  ZINC000537799672    0.0800
     52 H52       -10.4137   -0.1129   59.8034 H       1  ZINC000537799672    0.0500
     53 H53       -11.8573   -0.3579   60.8157 H       1  ZINC000537799672    0.1000
     54 H54        -8.3957   -1.3531   60.3449 H       1  ZINC000537799672    0.0500
     55 H55        -8.4305   -2.4640   61.7355 H       1  ZINC000537799672    0.1000
     56 H56        -9.9768   -3.9587   60.5276 H       1  ZINC000537799672    0.0800
     57 H57        -8.5065   -3.6877   59.5595 H       1  ZINC000537799672    0.0800
@<TRIPOS>BOND
     1     1     2    1
     2     1    32    1
     3     1    33    1
     4     1    34    1
     5     2     3    1
     6     3     4    1
     7     3     5    1
     8     3    12    1
     9     5    11   ar
    10     5     6   ar
    11     6     7   ar
    12     6    35    1
    13     7     8   ar
    14     7    36    1
    15     8     9    1
    16     8    10   ar
    17    10    11   ar
    18    10    37    1
    19    11    38    1
    20    12    13    1
    21    12    14    1
    22    12    15    1
    23    14    39    1
    24    14    40    1
    25    14    41    1
    26    15    16   am
    27    15    42    1
    28    16    17    2
    29    16    18    1
    30    18    23   ar
    31    18    19   ar
    32    19    20   ar
    33    19    43    1
    34    20    21   ar
    35    20    44    1
    36    21    22   ar
    37    21    45    1
    38    22    23   ar
    39    22    46    1
    40    23    24    1
    41    24    25    1
    42    24    47    1
    43    24    48    1
    44    25    26    1
    45    26    31    1
    46    26    27    1
    47    26    49    1
    48    27    28    1
    49    27    50    1
    50    27    51    1
    51    28    29    1
    52    28    52    1
    53    28    53    1
    54    29    30    1
    55    30    31    1
    56    30    54    1
    57    30    55    1
    58    31    56    1
    59    31    57    1
@<TRIPOS>SUBSTRUCTURE
     1 ZINC000537799672        1 TEMP              0 ****  ****    0 ROOT


##########                                Name:    ZINC001053792610
##########                DOCK_Rotatable_Bonds:                   5
##########                         Heavy_Atoms:                  25
##########                    Molecular_Weight:             347.374
##########                DOCK_Rotatable_Bonds:                   5
##########                       Formal_Charge:          -0.0400001
##########                     HBond_Acceptors:                   9
##########                        HBond_Donors:                   2
##########                         Heavy_Atoms:                  25
##########                          Grid_Score:          -35.716595
##########                     Grid_vdw_energy:          -33.879723
##########                      Grid_es_energy:           -1.836872
##########           Internal_energy_repulsive:            6.416139

@<TRIPOS>MOLECULE
ZINC001053792610
 46 49 1 0 0
SMALL
USER_CHARGES


@<TRIPOS>ATOM
      1 C1        -11.4214   -2.8684   52.3858 C.3     1  ZINC001053792610   -0.1000
      2 C2        -10.4009   -1.7619   52.4607 C.ar    1  ZINC001053792610    0.0800
      3 C3        -10.7658   -0.5155   52.9376 C.ar    1  ZINC001053792610    0.0600
      4 N4         -9.8710    0.4548   53.0032 N.ar    1  ZINC001053792610   -0.4200
      5 C5         -8.6280    0.2346   52.6134 C.ar    1  ZINC001053792610    0.0800
      6 C6         -7.6075    1.3409   52.6886 C.3     1  ZINC001053792610    0.0700
      7 N7         -6.7573    1.3052   51.4912 N.3     1  ZINC001053792610   -0.4500
      8 C8         -5.3342    1.4691   51.8478 C.3     1  ZINC001053792610   -0.0100
      9 C9         -5.2007    2.3944   50.6400 C.3     1  ZINC001053792610    0.0800
     10 C10        -6.6952    2.6318   50.8466 C.3     1  ZINC001053792610   -0.0100
     11 C11        -4.3062    3.6255   50.8545 C.3     1  ZINC001053792610   -0.1500
     12 C12        -3.0905    3.3042   49.9402 C.3     1  ZINC001053792610    0.1100
     13 H13        -2.6200    4.2180   49.5772 H       1  ZINC001053792610    0.1200
     14 N14        -2.1193    2.4540   50.6332 N.am    1  ZINC001053792610   -0.7100
     15 C15        -0.8082    2.5476   50.3354 C.2     1  ZINC001053792610    0.5000
     16 O16        -0.4322    3.3368   49.4947 O.2     1  ZINC001053792610   -0.5100
     17 C17         0.1906    1.6718   51.0470 C.3     1  ZINC001053792610    0.0800
     18 H18        -0.2582    0.7126   51.3049 H       1  ZINC001053792610    0.1300
     19 C19         1.4459    1.4656   50.1774 C.3     1  ZINC001053792610    0.0500
     20 O20         2.5239    2.0386   50.9728 O.3     1  ZINC001053792610   -0.3200
     21 C21         2.0278    2.5118   52.1215 C.2     1  ZINC001053792610    0.6500
     22 O22         2.7144    3.0442   52.9708 O.2     1  ZINC001053792610   -0.5100
     23 N23         0.7014    2.3439   52.2515 N.am    1  ZINC001053792610   -0.7100
     24 C24        -3.7825    2.5358   48.7853 C.3     1  ZINC001053792610    0.0400
     25 O25        -4.8287    1.7734   49.4137 O.3     1  ZINC001053792610   -0.3300
     26 C26        -8.2630   -1.0121   52.1363 C.ar    1  ZINC001053792610    0.0600
     27 N27        -9.1563   -1.9838   52.0758 N.ar    1  ZINC001053792610   -0.4400
     28 H28       -11.4235   -3.4247   53.3232 H       1  ZINC001053792610    0.0800
     29 H29       -12.4093   -2.4407   52.2150 H       1  ZINC001053792610    0.0800
     30 H30       -11.1694   -3.5402   51.5653 H       1  ZINC001053792610    0.0800
     31 H31       -11.7820   -0.3356   53.2559 H       1  ZINC001053792610    0.1700
     32 H32        -8.1177    2.3027   52.7434 H       1  ZINC001053792610    0.1000
     33 H33        -6.9902    1.2061   53.5767 H       1  ZINC001053792610    0.0600
     34 H34        -5.1804    1.9740   52.8015 H       1  ZINC001053792610    0.0800
     35 H35        -4.7548    0.5503   51.7577 H       1  ZINC001053792610    0.0900
     36 H36        -7.2590    2.6895   49.9155 H       1  ZINC001053792610    0.1000
     37 H37        -6.9148    3.4557   51.5255 H       1  ZINC001053792610    0.0800
     38 H38        -4.8102    4.5348   50.5270 H       1  ZINC001053792610    0.1000
     39 H39        -3.9987    3.7064   51.8971 H       1  ZINC001053792610    0.1000
     40 H40        -2.4199    1.8237   51.3064 H       1  ZINC001053792610    0.4000
     41 H41         1.6211    0.4037   50.0051 H       1  ZINC001053792610    0.1200
     42 H42         1.3461    1.9960   49.2304 H       1  ZINC001053792610    0.1100
     43 H43         0.1696    2.6228   53.0133 H       1  ZINC001053792610    0.4400
     44 H44        -4.2053    3.2361   48.0650 H       1  ZINC001053792610    0.0800
     45 H45        -3.0720    1.8704   48.2947 H       1  ZINC001053792610    0.0900
     46 H46        -7.2469   -1.1922   51.8176 H       1  ZINC001053792610    0.1600
@<TRIPOS>BOND
     1     1     2    1
     2     1    28    1
     3     1    29    1
     4     1    30    1
     5     2    27   ar
     6     2     3   ar
     7     3     4   ar
     8     3    31    1
     9     4     5   ar
    10     5     6    1
    11     5    26   ar
    12     6     7    1
    13     6    32    1
    14     6    33    1
    15     7    10    1
    16     7     8    1
    17     8     9    1
    18     8    34    1
    19     8    35    1
    20     9    25    1
    21     9    10    1
    22     9    11    1
    23    10    36    1
    24    10    37    1
    25    11    12    1
    26    11    38    1
    27    11    39    1
    28    12    13    1
    29    12    14    1
    30    12    24    1
    31    14    15   am
    32    14    40    1
    33    15    16    2
    34    15    17    1
    35    17    18    1
    36    17    23    1
    37    17    19    1
    38    19    20    1
    39    19    41    1
    40    19    42    1
    41    20    21    1
    42    21    22    2
    43    21    23   am
    44    23    43    1
    45    24    25    1
    46    24    44    1
    47    24    45    1
    48    26    27   ar
    49    26    46    1
@<TRIPOS>SUBSTRUCTURE
     1 ZINC001053792610        1 TEMP              0 ****  ****    0 ROOT


##########                                Name:    ZINC000673213454
##########                DOCK_Rotatable_Bonds:                   7
##########                         Heavy_Atoms:                  26
##########                    Molecular_Weight:             360.453
##########                DOCK_Rotatable_Bonds:                   7
##########                       Formal_Charge:          -0.0100001
##########                     HBond_Acceptors:                   6
##########                        HBond_Donors:                   1
##########                         Heavy_Atoms:                  26
##########                          Grid_Score:          -35.711166
##########                     Grid_vdw_energy:          -34.305092
##########                      Grid_es_energy:           -1.406075
##########           Internal_energy_repulsive:           15.503439

@<TRIPOS>MOLECULE
ZINC000673213454
 54 56 1 0 0
SMALL
USER_CHARGES


@<TRIPOS>ATOM
      1 C1         -8.9587    2.1277   53.7238 C.3     1  ZINC000673213454   -0.1700
      2 C2         -8.8219    1.1975   52.5167 C.3     1  ZINC000673213454    0.1400
      3 H3         -9.5188    1.5077   51.7382 H       1  ZINC000673213454    0.0900
      4 C4         -9.1373   -0.2383   52.9410 C.3     1  ZINC000673213454   -0.1200
      5 C5        -10.5966   -0.5585   52.6114 C.3     1  ZINC000673213454   -0.1300
      6 H6        -10.9408    0.0512   51.7761 H       1  ZINC000673213454    0.0800
      7 C7        -11.4944   -0.3339   53.8525 C.3     1  ZINC000673213454   -0.1500
      8 C8        -12.4638   -1.5407   53.7747 C.3     1  ZINC000673213454    0.0500
      9 O9        -11.6266   -2.6151   53.2957 O.3     1  ZINC000673213454   -0.3800
     10 C10       -10.7605   -2.0566   52.2891 C.3     1  ZINC000673213454    0.0500
     11 N11        -7.4523    1.2647   52.0012 N.am    1  ZINC000673213454   -0.6900
     12 C12        -7.1671    2.0545   50.9470 C.2     1  ZINC000673213454    0.5100
     13 O13        -8.0444    2.7111   50.4258 O.2     1  ZINC000673213454   -0.5100
     14 C14        -5.7702    2.1217   50.4199 C.2     1  ZINC000673213454    0.5000
     15 O15        -5.3683    1.2689   49.6558 O.2     1  ZINC000673213454   -0.5200
     16 N16        -4.9569    3.1295   50.7932 N.am    1  ZINC000673213454   -0.5800
     17 C17        -5.4737    4.1513   51.7230 C.3     1  ZINC000673213454    0.1100
     18 C18        -4.4195    4.5210   52.7768 C.3     1  ZINC000673213454   -0.1700
     19 C19        -3.6897    3.2710   53.2253 C.3     1  ZINC000673213454    0.0800
     20 O20        -2.5409    3.0940   52.4068 O.3     1  ZINC000673213454   -0.3800
     21 C21        -2.6553    2.4028   51.2176 C.3     1  ZINC000673213454    0.1500
     22 H22        -3.0588    1.4092   51.4122 H       1  ZINC000673213454    0.0600
     23 C23        -1.2969    2.2768   50.5773 C.ar    1  ZINC000673213454   -0.0800
     24 C24        -1.0731    1.3093   49.6157 C.ar    1  ZINC000673213454   -0.0900
     25 C25         0.1729    1.1938   49.0284 C.ar    1  ZINC000673213454   -0.1300
     26 C26         1.1951    2.0459   49.4025 C.ar    1  ZINC000673213454   -0.1200
     27 C27         0.9710    3.0140   50.3635 C.ar    1  ZINC000673213454   -0.1300
     28 C28        -0.2763    3.1324   50.9477 C.ar    1  ZINC000673213454   -0.0900
     29 C29        -3.6039    3.1651   50.2696 C.3     1  ZINC000673213454    0.0700
     30 H30        -8.2618    1.8175   54.5024 H       1  ZINC000673213454    0.0600
     31 H31        -8.7341    3.1506   53.4215 H       1  ZINC000673213454    0.0600
     32 H32        -9.9778    2.0777   54.1074 H       1  ZINC000673213454    0.0700
     33 H33        -8.4842   -0.9272   52.4053 H       1  ZINC000673213454    0.0800
     34 H34        -8.9755   -0.3441   54.0137 H       1  ZINC000673213454    0.0900
     35 H35       -10.9057   -0.3662   54.7693 H       1  ZINC000673213454    0.0800
     36 H36       -12.0380    0.6075   53.7740 H       1  ZINC000673213454    0.0800
     37 H37       -12.8635   -1.7762   54.7611 H       1  ZINC000673213454    0.0900
     38 H38       -13.2711   -1.3398   53.0703 H       1  ZINC000673213454    0.0600
     39 H39       -11.2098   -2.1797   51.3037 H       1  ZINC000673213454    0.0600
     40 H40        -9.7894   -2.5506   52.3202 H       1  ZINC000673213454    0.0900
     41 H41        -6.7507    0.7408   52.4185 H       1  ZINC000673213454    0.4100
     42 H42        -5.7445    5.0439   51.1591 H       1  ZINC000673213454    0.0800
     43 H43        -6.3603    3.7631   52.2244 H       1  ZINC000673213454    0.0900
     44 H44        -3.7060    5.2231   52.3457 H       1  ZINC000673213454    0.0800
     45 H45        -4.9096    4.9824   53.6341 H       1  ZINC000673213454    0.0900
     46 H46        -3.3838    3.3799   54.2658 H       1  ZINC000673213454    0.1000
     47 H47        -4.3473    2.4076   53.1238 H       1  ZINC000673213454    0.0500
     48 H48        -1.8717    0.6436   49.3235 H       1  ZINC000673213454    0.1300
     49 H49         0.3480    0.4374   48.2776 H       1  ZINC000673213454    0.1200
     50 H50         2.1688    1.9552   48.9442 H       1  ZINC000673213454    0.1200
     51 H51         1.7696    3.6796   50.6560 H       1  ZINC000673213454    0.1200
     52 H52        -0.4513    3.8888   51.6984 H       1  ZINC000673213454    0.1300
     53 H53        -3.5856    2.6980   49.2849 H       1  ZINC000673213454    0.1200
     54 H54        -3.2775    4.2017   50.1857 H       1  ZINC000673213454    0.0800
@<TRIPOS>BOND
     1     1     2    1
     2     1    30    1
     3     1    31    1
     4     1    32    1
     5     2     3    1
     6     2     4    1
     7     2    11    1
     8     4     5    1
     9     4    33    1
    10     4    34    1
    11     5     6    1
    12     5    10    1
    13     5     7    1
    14     7     8    1
    15     7    35    1
    16     7    36    1
    17     8     9    1
    18     8    37    1
    19     8    38    1
    20     9    10    1
    21    10    39    1
    22    10    40    1
    23    11    12   am
    24    11    41    1
    25    12    13    2
    26    12    14    1
    27    14    15    2
    28    14    16   am
    29    16    29    1
    30    16    17    1
    31    17    18    1
    32    17    42    1
    33    17    43    1
    34    18    19    1
    35    18    44    1
    36    18    45    1
    37    19    20    1
    38    19    46    1
    39    19    47    1
    40    20    21    1
    41    21    22    1
    42    21    23    1
    43    21    29    1
    44    23    28   ar
    45    23    24   ar
    46    24    25   ar
    47    24    48    1
    48    25    26   ar
    49    25    49    1
    50    26    27   ar
    51    26    50    1
    52    27    28   ar
    53    27    51    1
    54    28    52    1
    55    29    53    1
    56    29    54    1
@<TRIPOS>SUBSTRUCTURE
     1 ZINC000673213454        1 TEMP              0 ****  ****    0 ROOT


##########                                Name:    ZINC000291574087
##########                DOCK_Rotatable_Bonds:                   8
##########                         Heavy_Atoms:                  23
##########                    Molecular_Weight:             387.249
##########                DOCK_Rotatable_Bonds:                   8
##########                       Formal_Charge:          -0.0400007
##########                     HBond_Acceptors:                   6
##########                        HBond_Donors:                   2
##########                         Heavy_Atoms:                  23
##########                          Grid_Score:          -35.701771
##########                     Grid_vdw_energy:          -35.130768
##########                      Grid_es_energy:           -0.571005
##########           Internal_energy_repulsive:           25.158415

@<TRIPOS>MOLECULE
ZINC000291574087
 43 44 1 0 0
SMALL
USER_CHARGES


@<TRIPOS>ATOM
      1 C1         -2.4078    2.4076   49.1395 C.3     1  ZINC000291574087    0.0200
      2 O2         -3.3488    3.3228   49.7044 O.3     1  ZINC000291574087   -0.3700
      3 C3         -4.2254    2.7345   50.6675 C.3     1  ZINC000291574087    0.1400
      4 C4         -3.4035    2.1737   51.8297 C.3     1  ZINC000291574087   -0.1500
      5 C5         -5.0186    1.6028   50.0109 C.3     1  ZINC000291574087    0.0900
      6 N6         -6.0597    1.1386   50.9311 N.am    1  ZINC000291574087   -0.6900
      7 C7         -6.4962   -0.1351   50.8676 C.2     1  ZINC000291574087    0.5100
      8 O8         -6.0277   -0.8968   50.0472 O.2     1  ZINC000291574087   -0.5100
      9 C9         -7.5562   -0.6088   51.8068 C.2     1  ZINC000291574087    0.5100
     10 O10        -7.6705   -1.7934   52.0455 O.2     1  ZINC000291574087   -0.4900
     11 N11        -8.3859    0.2792   52.3896 N.am    1  ZINC000291574087   -0.6400
     12 C12        -9.3786   -0.1644   53.2692 C.ar    1  ZINC000291574087    0.1300
     13 C13       -10.3715   -1.0250   52.8207 C.ar    1  ZINC000291574087   -0.1000
     14 C14       -11.3507   -1.4621   53.6918 C.ar    1  ZINC000291574087   -0.0400
     15 C15       -12.4283   -2.3962   53.2048 C.3     1  ZINC000291574087   -0.1300
     16 C16       -11.3434   -1.0440   55.0105 C.ar    1  ZINC000291574087   -0.0900
     17 Br17      -12.6856   -1.6465   56.1986 Br      1  ZINC000291574087   -0.0300
     18 C18       -10.3558   -0.1862   55.4623 C.ar    1  ZINC000291574087   -0.1000
     19 C19        -9.3701    0.2512   54.5972 C.ar    1  ZINC000291574087    0.0700
     20 F20        -8.4060    1.0886   55.0379 F       1  ZINC000291574087   -0.1300
     21 C21        -5.1926    3.7972   51.1929 C.3     1  ZINC000291574087   -0.1900
     22 C22        -5.2671    3.9975   52.7078 C.3     1  ZINC000291574087   -0.1700
     23 C23        -4.5878    5.0501   51.8295 C.3     1  ZINC000291574087   -0.1600
     24 H24        -1.7796    2.9311   48.4186 H       1  ZINC000291574087    0.0900
     25 H25        -1.7838    1.9930   49.9313 H       1  ZINC000291574087    0.0400
     26 H26        -2.9419    1.6009   48.6376 H       1  ZINC000291574087    0.0500
     27 H27        -2.8383    2.9799   52.2974 H       1  ZINC000291574087    0.0700
     28 H28        -4.0721    1.7250   52.5643 H       1  ZINC000291574087    0.0800
     29 H29        -2.7144    1.4167   51.4554 H       1  ZINC000291574087    0.0700
     30 H30        -5.4808    1.9677   49.0937 H       1  ZINC000291574087    0.0900
     31 H31        -4.3470    0.7771   49.7759 H       1  ZINC000291574087    0.0800
     32 H32        -6.4350    1.7478   51.5860 H       1  ZINC000291574087    0.4200
     33 H33        -8.2946    1.2258   52.1991 H       1  ZINC000291574087    0.4300
     34 H34       -10.3785   -1.3523   51.7916 H       1  ZINC000291574087    0.1600
     35 H35       -12.1033   -3.4278   53.3402 H       1  ZINC000291574087    0.0800
     36 H36       -13.3419   -2.2254   53.7743 H       1  ZINC000291574087    0.0800
     37 H37       -12.6191   -2.2112   52.1478 H       1  ZINC000291574087    0.0800
     38 H38       -10.3530    0.1388   56.4922 H       1  ZINC000291574087    0.1500
     39 H39        -6.1142    3.9169   50.6232 H       1  ZINC000291574087    0.1100
     40 H40        -6.2378    4.2489   53.1353 H       1  ZINC000291574087    0.1000
     41 H41        -4.6270    3.3721   53.3302 H       1  ZINC000291574087    0.1000
     42 H42        -3.5008    5.1172   51.8741 H       1  ZINC000291574087    0.1000
     43 H43        -5.1116    5.9940   51.6790 H       1  ZINC000291574087    0.1000
@<TRIPOS>BOND
     1     1     2    1
     2     1    24    1
     3     1    25    1
     4     1    26    1
     5     2     3    1
     6     3     4    1
     7     3     5    1
     8     3    21    1
     9     4    27    1
    10     4    28    1
    11     4    29    1
    12     5     6    1
    13     5    30    1
    14     5    31    1
    15     6     7   am
    16     6    32    1
    17     7     8    2
    18     7     9    1
    19     9    10    2
    20     9    11   am
    21    11    12    1
    22    11    33    1
    23    12    19   ar
    24    12    13   ar
    25    13    14   ar
    26    13    34    1
    27    14    15    1
    28    14    16   ar
    29    15    35    1
    30    15    36    1
    31    15    37    1
    32    16    17    1
    33    16    18   ar
    34    18    19   ar
    35    18    38    1
    36    19    20    1
    37    21    23    1
    38    21    22    1
    39    21    39    1
    40    22    23    1
    41    22    40    1
    42    22    41    1
    43    23    42    1
    44    23    43    1
@<TRIPOS>SUBSTRUCTURE
     1 ZINC000291574087        1 TEMP              0 ****  ****    0 ROOT


##########                                Name:    ZINC000457806032
##########                DOCK_Rotatable_Bonds:                   8
##########                         Heavy_Atoms:                  24
##########                    Molecular_Weight:             387.911
##########                DOCK_Rotatable_Bonds:                   8
##########                       Formal_Charge:        -1.49012e-07
##########                     HBond_Acceptors:                   9
##########                        HBond_Donors:                   2
##########                         Heavy_Atoms:                  24
##########                          Grid_Score:          -35.699963
##########                     Grid_vdw_energy:          -34.596703
##########                      Grid_es_energy:           -1.103260
##########           Internal_energy_repulsive:           14.206997

@<TRIPOS>MOLECULE
ZINC000457806032
 42 43 1 0 0
SMALL
USER_CHARGES


@<TRIPOS>ATOM
      1 C1          0.3462    4.3524   51.6852 C.3     1  ZINC000457806032    0.0800
      2 N2          0.8004    2.9608   51.6261 N.am    1  ZINC000457806032   -1.0100
      3 C3          1.6959    2.4381   52.6610 C.3     1  ZINC000457806032    0.0900
      4 S4          0.3016    1.9787   50.3897 S.o2    1  ZINC000457806032    2.7900
      5 O5          0.6174    2.6603   49.1834 O.2     1  ZINC000457806032   -0.9700
      6 O6          0.7798    0.6757   50.6942 O.2     1  ZINC000457806032   -0.9700
      7 N7         -1.3509    1.8993   50.4631 N.am    1  ZINC000457806032   -1.1300
      8 C8         -2.1494    3.1210   50.3360 C.3     1  ZINC000457806032    0.1100
      9 C9         -3.4433    2.8085   49.5818 C.3     1  ZINC000457806032    0.1100
     10 N10        -4.2506    1.8700   50.3651 N.am    1  ZINC000457806032   -0.7300
     11 C11        -5.5798    1.7881   50.1574 C.2     1  ZINC000457806032    0.5800
     12 O12        -6.1088    2.4924   49.3187 O.2     1  ZINC000457806032   -0.5300
     13 C13        -6.3914    0.8460   50.9459 C.2     1  ZINC000457806032   -0.1500
     14 C14        -6.3312   -0.5048   50.7797 C.2     1  ZINC000457806032   -0.2200
     15 S15        -7.4006   -1.2882   51.8533 S.3     1  ZINC000457806032    0.2400
     16 C16        -7.9319    0.2426   52.5322 C.2     1  ZINC000457806032   -0.1700
     17 C17        -8.9363    0.3912   53.6076 C.ar    1  ZINC000457806032   -0.0100
     18 C18        -8.6963    1.2570   54.6752 C.ar    1  ZINC000457806032   -0.0900
     19 C19        -9.6368    1.3915   55.6755 C.ar    1  ZINC000457806032   -0.1000
     20 C20       -10.8167    0.6690   55.6216 C.ar    1  ZINC000457806032   -0.0300
     21 Cl21      -11.9954    0.8430   56.8842 Cl      1  ZINC000457806032   -0.0600
     22 C22       -11.0605   -0.1913   54.5645 C.ar    1  ZINC000457806032   -0.1000
     23 C23       -10.1299   -0.3297   53.5556 C.ar    1  ZINC000457806032   -0.1000
     24 C24        -7.2869    1.2570   51.9346 C.2     1  ZINC000457806032   -0.0700
     25 H25         1.0468    4.9866   51.1420 H       1  ZINC000457806032    0.0600
     26 H26        -0.6420    4.4316   51.2320 H       1  ZINC000457806032    0.0800
     27 H27         0.2958    4.6744   52.7253 H       1  ZINC000457806032    0.0800
     28 H28         1.1048    2.0194   53.4754 H       1  ZINC000457806032    0.0600
     29 H29         2.3293    1.6603   52.2345 H       1  ZINC000457806032    0.0700
     30 H30         2.3201    3.2458   53.0432 H       1  ZINC000457806032    0.0700
     31 H31        -1.7902    1.0439   50.5901 H       1  ZINC000457806032    0.4200
     32 H32        -2.3903    3.5024   51.3283 H       1  ZINC000457806032    0.0700
     33 H33        -1.5806    3.8713   49.7867 H       1  ZINC000457806032    0.0900
     34 H34        -4.0051    3.7297   49.4270 H       1  ZINC000457806032    0.0800
     35 H35        -3.2027    2.3632   48.6165 H       1  ZINC000457806032    0.0800
     36 H36        -3.8285    1.3073   51.0331 H       1  ZINC000457806032    0.4000
     37 H37        -5.6950   -1.0093   50.0674 H       1  ZINC000457806032    0.1700
     38 H38        -7.7760    1.8206   54.7186 H       1  ZINC000457806032    0.1400
     39 H39        -9.4522    2.0614   56.5022 H       1  ZINC000457806032    0.1400
     40 H40       -11.9826   -0.7523   54.5279 H       1  ZINC000457806032    0.1400
     41 H41       -10.3213   -1.0008   52.7313 H       1  ZINC000457806032    0.1300
     42 H42        -7.4514    2.2937   52.1892 H       1  ZINC000457806032    0.1600
@<TRIPOS>BOND
     1     1     2    1
     2     1    25    1
     3     1    26    1
     4     1    27    1
     5     2     3    1
     6     2     4   am
     7     3    28    1
     8     3    29    1
     9     3    30    1
    10     4     5    2
    11     4     6    2
    12     4     7   am
    13     7     8    1
    14     7    31    1
    15     8     9    1
    16     8    32    1
    17     8    33    1
    18     9    10    1
    19     9    34    1
    20     9    35    1
    21    10    11   am
    22    10    36    1
    23    11    12    2
    24    11    13    1
    25    13    24    1
    26    13    14    2
    27    14    15    1
    28    14    37    1
    29    15    16    1
    30    16    17    1
    31    16    24    2
    32    17    23   ar
    33    17    18   ar
    34    18    19   ar
    35    18    38    1
    36    19    20   ar
    37    19    39    1
    38    20    21    1
    39    20    22   ar
    40    22    23   ar
    41    22    40    1
    42    23    41    1
    43    24    42    1
@<TRIPOS>SUBSTRUCTURE
     1 ZINC000457806032        1 TEMP              0 ****  ****    0 ROOT


##########                                Name:    ZINC000892389374
##########                DOCK_Rotatable_Bonds:                   6
##########                         Heavy_Atoms:                  25
##########                    Molecular_Weight:             371.383
##########                DOCK_Rotatable_Bonds:                   6
##########                       Formal_Charge:          -0.0199998
##########                     HBond_Acceptors:                   9
##########                        HBond_Donors:                   1
##########                         Heavy_Atoms:                  25
##########                          Grid_Score:          -35.692257
##########                     Grid_vdw_energy:          -33.934883
##########                      Grid_es_energy:           -1.757373
##########           Internal_energy_repulsive:            9.194029

@<TRIPOS>MOLECULE
ZINC000892389374
 41 43 1 0 0
SMALL
USER_CHARGES


@<TRIPOS>ATOM
      1 C1        -13.0453   -3.9884   53.6404 C.3     1  ZINC000892389374   -0.1000
      2 C2        -12.4214   -3.6094   54.9589 C.ar    1  ZINC000892389374   -0.1800
      3 C3        -12.6169   -4.4073   56.0694 C.ar    1  ZINC000892389374   -0.0400
      4 C4        -12.0462   -4.0634   57.2799 C.ar    1  ZINC000892389374   -0.2100
      5 C5        -11.2742   -2.9134   57.3840 C.ar    1  ZINC000892389374    0.2200
      6 N6        -10.6966   -2.5660   58.6105 N.am    1  ZINC000892389374   -0.5700
      7 C7         -9.2573   -2.5818   58.9133 C.3     1  ZINC000892389374    0.0600
      8 C8         -9.1858   -2.1177   60.3809 C.3     1  ZINC000892389374    0.0400
      9 O9        -10.5777   -1.8913   60.7474 O.3     1  ZINC000892389374   -0.3200
     10 C10       -11.3643   -2.1592   59.6989 C.2     1  ZINC000892389374    0.6400
     11 O11       -12.5742   -2.0517   59.7329 O.2     1  ZINC000892389374   -0.5000
     12 C12       -11.0756   -2.1096   56.2706 C.ar    1  ZINC000892389374   -0.2300
     13 C13       -11.6452   -2.4605   55.0548 C.ar    1  ZINC000892389374    0.2400
     14 N14       -11.4480   -1.6541   53.9317 N.pl3   1  ZINC000892389374   -0.7400
     15 C15       -10.6089   -2.1277   52.8281 C.3     1  ZINC000892389374    0.2000
     16 C16        -9.4669   -1.1673   52.6174 C.2     1  ZINC000892389374   -0.2400
     17 C17        -8.2904   -1.4564   52.0533 C.2     1  ZINC000892389374    0.0600
     18 N18        -7.4535   -0.4409   51.9834 N.2     1  ZINC000892389374   -0.4500
     19 C19        -7.8586    0.6888   52.4572 C.2     1  ZINC000892389374    0.0200
     20 C20        -7.0489    1.9598   52.4679 C.3     1  ZINC000892389374   -0.0900
     21 C21        -6.0939    1.9662   51.2726 C.3     1  ZINC000892389374    0.4600
     22 F22        -5.3768    3.1673   51.2550 F       1  ZINC000892389374   -0.1800
     23 F23        -5.2034    0.8928   51.3813 F       1  ZINC000892389374   -0.1800
     24 F24        -6.8286    1.8444   50.0882 F       1  ZINC000892389374   -0.1700
     25 S25        -9.4497    0.5369   53.0642 S.3     1  ZINC000892389374    0.1900
     26 H26       -12.3584   -4.6255   53.0832 H       1  ZINC000892389374    0.0700
     27 H27       -13.9756   -4.5273   53.8202 H       1  ZINC000892389374    0.0700
     28 H28       -13.2531   -3.0868   53.0643 H       1  ZINC000892389374    0.0600
     29 H29       -13.2173   -5.3016   55.9915 H       1  ZINC000892389374    0.1300
     30 H30       -12.2009   -4.6893   58.1464 H       1  ZINC000892389374    0.1200
     31 H31        -8.8556   -3.5899   58.8106 H       1  ZINC000892389374    0.1000
     32 H32        -8.7222   -1.8875   58.2656 H       1  ZINC000892389374    0.1000
     33 H33        -8.7475   -2.8951   61.0066 H       1  ZINC000892389374    0.1100
     34 H34        -8.6142   -1.1931   60.4618 H       1  ZINC000892389374    0.1100
     35 H35       -10.4760   -1.2148   56.3491 H       1  ZINC000892389374    0.1600
     36 H36       -11.8667   -0.7805   53.8822 H       1  ZINC000892389374    0.4000
     37 H37       -10.2140   -3.1145   53.0696 H       1  ZINC000892389374    0.0900
     38 H38       -11.2056   -2.1880   51.9179 H       1  ZINC000892389374    0.0800
     39 H39        -8.0455   -2.4417   51.6848 H       1  ZINC000892389374    0.1800
     40 H40        -7.7183    2.8176   52.4028 H       1  ZINC000892389374    0.1300
     41 H41        -6.4742    2.0168   53.3924 H       1  ZINC000892389374    0.1400
@<TRIPOS>BOND
     1     1     2    1
     2     1    26    1
     3     1    27    1
     4     1    28    1
     5     2    13   ar
     6     2     3   ar
     7     3     4   ar
     8     3    29    1
     9     4     5   ar
    10     4    30    1
    11     5     6    1
    12     5    12   ar
    13     6    10   am
    14     6     7    1
    15     7     8    1
    16     7    31    1
    17     7    32    1
    18     8     9    1
    19     8    33    1
    20     8    34    1
    21     9    10    1
    22    10    11    2
    23    12    13   ar
    24    12    35    1
    25    13    14    1
    26    14    15    1
    27    14    36    1
    28    15    16    1
    29    15    37    1
    30    15    38    1
    31    16    25    1
    32    16    17    2
    33    17    18    1
    34    17    39    1
    35    18    19    2
    36    19    20    1
    37    19    25    1
    38    20    21    1
    39    20    40    1
    40    20    41    1
    41    21    22    1
    42    21    23    1
    43    21    24    1
@<TRIPOS>SUBSTRUCTURE
     1 ZINC000892389374        1 TEMP              0 ****  ****    0 ROOT


##########                                Name:    ZINC001579482641
##########                DOCK_Rotatable_Bonds:                   5
##########                         Heavy_Atoms:                  26
##########                    Molecular_Weight:             355.359
##########                DOCK_Rotatable_Bonds:                   5
##########                       Formal_Charge:                0.05
##########                     HBond_Acceptors:                  11
##########                        HBond_Donors:                   1
##########                         Heavy_Atoms:                  26
##########                          Grid_Score:          -35.683311
##########                     Grid_vdw_energy:          -32.607327
##########                      Grid_es_energy:           -3.075986
##########           Internal_energy_repulsive:           12.675524

@<TRIPOS>MOLECULE
ZINC001579482641
 43 46 1 0 0
SMALL
USER_CHARGES


@<TRIPOS>ATOM
      1 C1         -9.6491   -2.9263   58.4990 C.3     1  ZINC001579482641    0.0300
      2 O2        -10.9527   -2.5982   59.0480 O.3     1  ZINC001579482641   -0.3300
      3 C3        -11.6648   -1.6502   58.4082 C.2     1  ZINC001579482641    0.5300
      4 O4        -12.7627   -1.3334   58.8205 O.2     1  ZINC001579482641   -0.4900
      5 C5        -11.1104   -0.9958   57.2053 C.ar    1  ZINC001579482641    0.0900
      6 C6        -10.2790    0.1165   57.3474 C.ar    1  ZINC001579482641   -0.0800
      7 C7         -9.7625    0.7255   56.2182 C.ar    1  ZINC001579482641   -0.1200
      8 C8        -10.0935    0.2027   54.9703 C.ar    1  ZINC001579482641    0.1100
      9 N9         -9.5971    0.7824   53.8107 N.3     1  ZINC001579482641   -0.4600
     10 C10       -10.0957    2.1728   53.6549 C.3     1  ZINC001579482641    0.0400
     11 C11        -9.0772    2.8070   52.6747 C.3     1  ZINC001579482641   -0.1100
     12 C12        -7.7356    2.1774   53.1148 C.3     1  ZINC001579482641   -0.0100
     13 H13        -7.2016    2.8533   53.7826 H       1  ZINC001579482641    0.0900
     14 C14        -6.8888    1.8558   51.9105 C.2     1  ZINC001579482641    0.1800
     15 N15        -6.5861    0.6637   51.4737 N.2     1  ZINC001579482641   -0.2600
     16 N16        -5.8481    0.7614   50.4252 N.2     1  ZINC001579482641   -0.2900
     17 C17        -5.6463    2.0202   50.1455 C.2     1  ZINC001579482641    0.1500
     18 N18        -6.3052    2.7507   51.0772 N.pl3   1  ZINC001579482641   -0.4800
     19 C19        -6.3669    4.2115   51.1699 C.3     1  ZINC001579482641    0.0700
     20 C20        -8.1225    0.8859   53.8591 C.3     1  ZINC001579482641    0.0600
     21 C21       -10.9363   -0.9197   54.9011 C.ar    1  ZINC001579482641    0.2300
     22 C22       -11.2976   -1.4877   53.5791 C.2     1  ZINC001579482641    0.2100
     23 N23       -12.2504   -1.0626   52.7730 N.2     1  ZINC001579482641   -0.2600
     24 N24       -12.2471   -1.8156   51.7272 N.pl3   1  ZINC001579482641   -0.2300
     25 N25       -11.3230   -2.7040   51.8447 N.2     1  ZINC001579482641   -0.0500
     26 N26       -10.7148   -2.5297   52.9687 N.2     1  ZINC001579482641   -0.2000
     27 N27       -11.4051   -1.4765   56.0031 N.ar    1  ZINC001579482641   -0.4000
     28 H28        -9.0197   -2.0364   58.5006 H       1  ZINC001579482641    0.0700
     29 H29        -9.1834   -3.7018   59.1073 H       1  ZINC001579482641    0.1100
     30 H30        -9.7655   -3.2872   57.4771 H       1  ZINC001579482641    0.0700
     31 H31       -10.0416    0.4980   58.3296 H       1  ZINC001579482641    0.1600
     32 H32        -9.1173    1.5875   56.3020 H       1  ZINC001579482641    0.1600
     33 H33       -11.0973    2.1764   53.2247 H       1  ZINC001579482641    0.1000
     34 H34       -10.0851    2.6947   54.6118 H       1  ZINC001579482641    0.0600
     35 H35        -9.3117    2.5351   51.6455 H       1  ZINC001579482641    0.1000
     36 H36        -9.0519    3.8903   52.7924 H       1  ZINC001579482641    0.0800
     37 H37        -5.0652    2.4078   49.3217 H       1  ZINC001579482641    0.2200
     38 H38        -7.2202    4.5761   50.5980 H       1  ZINC001579482641    0.0800
     39 H39        -6.4771    4.5050   52.2138 H       1  ZINC001579482641    0.0900
     40 H40        -5.4494    4.6403   50.7668 H       1  ZINC001579482641    0.0900
     41 H41        -7.7879    0.9399   54.8950 H       1  ZINC001579482641    0.0600
     42 H42        -7.6734    0.0241   53.3655 H       1  ZINC001579482641    0.1000
     43 H43       -12.8473   -1.7270   50.9702 H       1  ZINC001579482641    0.4800
@<TRIPOS>BOND
     1     1     2    1
     2     1    28    1
     3     1    29    1
     4     1    30    1
     5     2     3    1
     6     3     4    2
     7     3     5    1
     8     5    27   ar
     9     5     6   ar
    10     6     7   ar
    11     6    31    1
    12     7     8   ar
    13     7    32    1
    14     8     9    1
    15     8    21   ar
    16     9    20    1
    17     9    10    1
    18    10    11    1
    19    10    33    1
    20    10    34    1
    21    11    12    1
    22    11    35    1
    23    11    36    1
    24    12    13    1
    25    12    14    1
    26    12    20    1
    27    14    18    1
    28    14    15    2
    29    15    16    1
    30    16    17    2
    31    17    18    1
    32    17    37    1
    33    18    19    1
    34    19    38    1
    35    19    39    1
    36    19    40    1
    37    20    41    1
    38    20    42    1
    39    21    22    1
    40    21    27   ar
    41    22    26    1
    42    22    23    2
    43    23    24    1
    44    24    25    1
    45    24    43    1
    46    25    26    2
@<TRIPOS>SUBSTRUCTURE
     1 ZINC001579482641        1 TEMP              0 ****  ****    0 ROOT


##########                                Name:    ZINC000443394081
##########                DOCK_Rotatable_Bonds:                   8
##########                         Heavy_Atoms:                  27
##########                    Molecular_Weight:             389.878
##########                DOCK_Rotatable_Bonds:                   8
##########                       Formal_Charge:          -0.0300003
##########                     HBond_Acceptors:                   6
##########                        HBond_Donors:                   1
##########                         Heavy_Atoms:                  27
##########                          Grid_Score:          -35.682987
##########                     Grid_vdw_energy:          -33.991291
##########                      Grid_es_energy:           -1.691698
##########           Internal_energy_repulsive:           37.637577

@<TRIPOS>MOLECULE
ZINC000443394081
 51 53 1 0 0
SMALL
USER_CHARGES


@<TRIPOS>ATOM
      1 C1        -10.4579    3.7930   50.5039 C.3     1  ZINC000443394081    0.0200
      2 O2         -9.7065    3.4957   51.6825 O.3     1  ZINC000443394081   -0.3000
      3 C3         -8.7020    2.5871   51.5615 C.ar    1  ZINC000443394081    0.1000
      4 C4         -7.5050    2.9544   50.9786 C.ar    1  ZINC000443394081   -0.1200
      5 C5         -6.4745    2.0181   50.8563 C.ar    1  ZINC000443394081   -0.1300
      6 C6         -5.1931    2.4055   50.2346 C.2     1  ZINC000443394081    0.5700
      7 O7         -4.9900    2.1654   49.0601 O.2     1  ZINC000443394081   -0.4900
      8 N8         -4.2482    3.0256   50.9687 N.am    1  ZINC000443394081   -0.6100
      9 C9         -4.3617    3.3760   52.3962 C.3     1  ZINC000443394081    0.0900
     10 C10        -2.8995    3.4670   52.8998 C.3     1  ZINC000443394081   -0.1300
     11 C11        -2.1862    4.0944   51.6732 C.3     1  ZINC000443394081   -0.1000
     12 H12        -2.3027    5.1782   51.6719 H       1  ZINC000443394081    0.0900
     13 C13        -0.7051    3.7112   51.6538 C.3     1  ZINC000443394081   -0.1500
     14 C14        -2.9308    3.4588   50.4804 C.3     1  ZINC000443394081    0.1400
     15 H15        -3.0590    4.1961   49.6878 H       1  ZINC000443394081    0.0800
     16 C16        -2.1403    2.2599   49.9525 C.3     1  ZINC000443394081    0.0600
     17 O17        -2.6234    1.9045   48.6555 O.3     1  ZINC000443394081   -0.5400
     18 C18        -6.6597    0.7152   51.3241 C.ar    1  ZINC000443394081   -0.1000
     19 C19        -7.8569    0.3549   51.9043 C.ar    1  ZINC000443394081   -0.1800
     20 C20        -8.8783    1.2860   52.0311 C.ar    1  ZINC000443394081    0.1300
     21 O21       -10.0560    0.9262   52.6035 O.3     1  ZINC000443394081   -0.3000
     22 C22        -9.9945    0.3661   53.9168 C.3     1  ZINC000443394081    0.1000
     23 C23       -10.6752   -0.9784   53.9218 C.ar    1  ZINC000443394081   -0.0800
     24 C24       -10.6899   -1.7499   52.7754 C.ar    1  ZINC000443394081   -0.0800
     25 C25       -11.3145   -2.9834   52.7798 C.ar    1  ZINC000443394081   -0.1100
     26 C26       -11.9248   -3.4456   53.9306 C.ar    1  ZINC000443394081   -0.1000
     27 C27       -11.9107   -2.6747   55.0781 C.ar    1  ZINC000443394081   -0.1100
     28 C28       -11.2806   -1.4433   55.0760 C.ar    1  ZINC000443394081   -0.0300
     29 Cl29      -11.2625   -0.4747   56.5166 Cl      1  ZINC000443394081   -0.0700
     30 H30       -11.2256    4.5303   50.7388 H       1  ZINC000443394081    0.1000
     31 H31        -9.7917    4.1931   49.7396 H       1  ZINC000443394081    0.0600
     32 H32       -10.9296    2.8825   50.1344 H       1  ZINC000443394081    0.0600
     33 H33        -7.3657    3.9627   50.6179 H       1  ZINC000443394081    0.1500
     34 H34        -4.8634    4.3367   52.5122 H       1  ZINC000443394081    0.0700
     35 H35        -4.9012    2.5978   52.9361 H       1  ZINC000443394081    0.0800
     36 H36        -2.8260    4.1189   53.7702 H       1  ZINC000443394081    0.0900
     37 H37        -2.4999    2.4771   53.1200 H       1  ZINC000443394081    0.0800
     38 H38        -0.6110    2.6257   51.6250 H       1  ZINC000443394081    0.0600
     39 H39        -0.2302    4.1406   50.7716 H       1  ZINC000443394081    0.0600
     40 H40        -0.2188    4.0944   52.5509 H       1  ZINC000443394081    0.0600
     41 H41        -1.0840    2.5213   49.8878 H       1  ZINC000443394081    0.0600
     42 H42        -2.2647    1.4157   50.6306 H       1  ZINC000443394081    0.0400
     43 H43        -2.1498    1.1664   48.2480 H       1  ZINC000443394081    0.3700
     44 H44        -5.8650   -0.0101   51.2306 H       1  ZINC000443394081    0.1400
     45 H45        -7.9989   -0.6531   52.2652 H       1  ZINC000443394081    0.1400
     46 H46        -8.9521    0.2467   54.2124 H       1  ZINC000443394081    0.0800
     47 H47       -10.4976    1.0307   54.6191 H       1  ZINC000443394081    0.0800
     48 H48       -10.2139   -1.3890   51.8756 H       1  ZINC000443394081    0.1400
     49 H49       -11.3257   -3.5860   51.8835 H       1  ZINC000443394081    0.1300
     50 H50       -12.4131   -4.4088   53.9333 H       1  ZINC000443394081    0.1300
     51 H51       -12.3875   -3.0360   55.9773 H       1  ZINC000443394081    0.1400
@<TRIPOS>BOND
     1     1     2    1
     2     1    30    1
     3     1    31    1
     4     1    32    1
     5     2     3    1
     6     3    20   ar
     7     3     4   ar
     8     4     5   ar
     9     4    33    1
    10     5     6    1
    11     5    18   ar
    12     6     7    2
    13     6     8   am
    14     8    14    1
    15     8     9    1
    16     9    10    1
    17     9    34    1
    18     9    35    1
    19    10    11    1
    20    10    36    1
    21    10    37    1
    22    11    12    1
    23    11    13    1
    24    11    14    1
    25    13    38    1
    26    13    39    1
    27    13    40    1
    28    14    15    1
    29    14    16    1
    30    16    17    1
    31    16    41    1
    32    16    42    1
    33    17    43    1
    34    18    19   ar
    35    18    44    1
    36    19    20   ar
    37    19    45    1
    38    20    21    1
    39    21    22    1
    40    22    23    1
    41    22    46    1
    42    22    47    1
    43    23    28   ar
    44    23    24   ar
    45    24    25   ar
    46    24    48    1
    47    25    26   ar
    48    25    49    1
    49    26    27   ar
    50    26    50    1
    51    27    28   ar
    52    27    51    1
    53    28    29    1
@<TRIPOS>SUBSTRUCTURE
     1 ZINC000443394081        1 TEMP              0 ****  ****    0 ROOT


##########                                Name:    ZINC001077846158
##########                DOCK_Rotatable_Bonds:                   7
##########                         Heavy_Atoms:                  24
##########                    Molecular_Weight:             350.442
##########                DOCK_Rotatable_Bonds:                   7
##########                       Formal_Charge:          -0.0600002
##########                     HBond_Acceptors:                   8
##########                        HBond_Donors:                   2
##########                         Heavy_Atoms:                  24
##########                          Grid_Score:          -35.682198
##########                     Grid_vdw_energy:          -34.319019
##########                      Grid_es_energy:           -1.363179
##########           Internal_energy_repulsive:            7.862979

@<TRIPOS>MOLECULE
ZINC001077846158
 46 48 1 0 0
SMALL
USER_CHARGES


@<TRIPOS>ATOM
      1 C1         -6.8788    2.6574   51.3808 C.3     1  ZINC001077846158   -0.0700
      2 C2         -6.2823    1.3709   50.8705 C.2     1  ZINC001077846158    0.0100
      3 C3         -5.0829    1.2319   50.2819 C.2     1  ZINC001077846158   -0.0500
      4 C4         -4.0864    2.3293   50.0102 C.3     1  ZINC001077846158    0.1300
      5 N5         -2.7620    1.9194   50.4961 N.3     1  ZINC001077846158   -0.5100
      6 C6         -1.9165    1.4219   49.3808 C.3     1  ZINC001077846158    0.0000
      7 C7         -0.4783    1.5466   49.9435 C.3     1  ZINC001077846158    0.1000
      8 H8         -0.2423    0.7014   50.5899 H       1  ZINC001077846158    0.0800
      9 O9          0.4728    1.6500   48.8820 O.3     1  ZINC001077846158   -0.5600
     10 C10        -0.5386    2.8588   50.7587 C.3     1  ZINC001077846158    0.1400
     11 H11        -0.1577    3.6904   50.1660 H       1  ZINC001077846158    0.1100
     12 N12         0.2317    2.7236   51.9976 N.am    1  ZINC001077846158   -0.7000
     13 C13         1.5711    2.8725   51.9779 C.2     1  ZINC001077846158    0.6000
     14 O14         2.1404    3.1181   50.9315 O.2     1  ZINC001077846158   -0.5300
     15 C15         2.3452    2.7384   53.2235 C.2     1  ZINC001077846158    0.0100
     16 C16         3.6887    2.8802   53.2778 C.2     1  ZINC001077846158   -0.2300
     17 S17         4.2028    2.6522   54.8920 S.3     1  ZINC001077846158    0.2300
     18 C18         2.5954    2.3809   55.4012 C.2     1  ZINC001077846158    0.0300
     19 C19         2.1831    2.0840   56.8199 C.3     1  ZINC001077846158   -0.0200
     20 C20         3.1861    2.7179   57.7859 C.3     1  ZINC001077846158   -0.1500
     21 C21         0.7905    2.6628   57.0781 C.3     1  ZINC001077846158   -0.1500
     22 N22         1.7850    2.4709   54.4061 N.2     1  ZINC001077846158   -0.4500
     23 C23        -2.0311    3.0675   51.0751 C.3     1  ZINC001077846158    0.0300
     24 O24        -4.9381   -0.0734   49.9804 O.3     1  ZINC001077846158   -0.2100
     25 C25        -6.0439   -0.7116   50.3861 C.2     1  ZINC001077846158    0.1800
     26 N26        -6.8524    0.1543   50.9275 N.2     1  ZINC001077846158   -0.4900
     27 H27        -6.5870    2.8059   52.4204 H       1  ZINC001077846158    0.0800
     28 H28        -6.5154    3.4903   50.7789 H       1  ZINC001077846158    0.0700
     29 H29        -7.9654    2.6064   51.3122 H       1  ZINC001077846158    0.0700
     30 H30        -4.0375    2.5184   48.9379 H       1  ZINC001077846158    0.0600
     31 H31        -4.3972    3.2380   50.5257 H       1  ZINC001077846158    0.1100
     32 H32        -2.1519    0.3822   49.1538 H       1  ZINC001077846158    0.0900
     33 H33        -2.0392    2.0472   48.4965 H       1  ZINC001077846158    0.0600
     34 H34         0.3390    2.4160   48.3072 H       1  ZINC001077846158    0.3900
     35 H35        -0.2222    2.5267   52.8319 H       1  ZINC001077846158    0.4100
     36 H36         4.3317    3.1013   52.4387 H       1  ZINC001077846158    0.1900
     37 H37         2.1624    1.0050   56.9740 H       1  ZINC001077846158    0.1000
     38 H38         4.1781    2.3055   57.6019 H       1  ZINC001077846158    0.0600
     39 H39         3.2068    3.7968   57.6318 H       1  ZINC001077846158    0.0600
     40 H40         2.8878    2.5030   58.8120 H       1  ZINC001077846158    0.0700
     41 H41         0.0760    2.2112   56.3900 H       1  ZINC001077846158    0.0600
     42 H42         0.4923    2.4480   58.1043 H       1  ZINC001077846158    0.0700
     43 H43         0.8112    3.7417   56.9240 H       1  ZINC001077846158    0.0600
     44 H44        -2.3802    3.9959   50.6232 H       1  ZINC001077846158    0.0600
     45 H45        -2.1814    3.0971   52.1543 H       1  ZINC001077846158    0.0900
     46 H46        -6.2322   -1.7702   50.2848 H       1  ZINC001077846158    0.2500
@<TRIPOS>BOND
     1     1     2    1
     2     1    27    1
     3     1    28    1
     4     1    29    1
     5     2    26    1
     6     2     3    2
     7     3     4    1
     8     3    24    1
     9     4     5    1
    10     4    30    1
    11     4    31    1
    12     5    23    1
    13     5     6    1
    14     6     7    1
    15     6    32    1
    16     6    33    1
    17     7     8    1
    18     7     9    1
    19     7    10    1
    20     9    34    1
    21    10    11    1
    22    10    12    1
    23    10    23    1
    24    12    13   am
    25    12    35    1
    26    13    14    2
    27    13    15    1
    28    15    22    1
    29    15    16    2
    30    16    17    1
    31    16    36    1
    32    17    18    1
    33    18    19    1
    34    18    22    2
    35    19    20    1
    36    19    21    1
    37    19    37    1
    38    20    38    1
    39    20    39    1
    40    20    40    1
    41    21    41    1
    42    21    42    1
    43    21    43    1
    44    23    44    1
    45    23    45    1
    46    24    25    1
    47    25    26    2
    48    25    46    1
@<TRIPOS>SUBSTRUCTURE
     1 ZINC001077846158        1 TEMP              0 ****  ****    0 ROOT


##########                                Name:    ZINC000572148596
##########                DOCK_Rotatable_Bonds:                   4
##########                         Heavy_Atoms:                  26
##########                    Molecular_Weight:             371.463
##########                DOCK_Rotatable_Bonds:                   4
##########                       Formal_Charge:          -0.0199999
##########                     HBond_Acceptors:                   8
##########                        HBond_Donors:                   0
##########                         Heavy_Atoms:                  26
##########                          Grid_Score:          -35.676975
##########                     Grid_vdw_energy:          -35.701984
##########                      Grid_es_energy:            0.025011
##########           Internal_energy_repulsive:            6.613789

@<TRIPOS>MOLECULE
ZINC000572148596
 47 50 1 0 0
SMALL
USER_CHARGES


@<TRIPOS>ATOM
      1 C1         -5.7109    3.9747   51.0290 C.3     1  ZINC000572148596   -0.1400
      2 C2         -5.0897    2.7189   51.6440 C.3     1  ZINC000572148596    0.0800
      3 H3         -4.8155    2.9192   52.6798 H       1  ZINC000572148596    0.1200
      4 C4         -6.0875    1.5906   51.5976 C.2     1  ZINC000572148596    0.1800
      5 N5         -6.1562    0.6636   50.6881 N.2     1  ZINC000572148596   -0.3500
      6 O6         -7.0663   -0.1011   50.9289 O.3     1  ZINC000572148596    0.0900
      7 C7         -7.6889    0.2774   52.0562 C.2     1  ZINC000572148596    0.2300
      8 C8         -8.8444   -0.3866   52.6911 C.ar    1  ZINC000572148596   -0.1200
      9 C9         -9.4498    0.1714   53.8265 C.ar    1  ZINC000572148596   -0.0100
     10 C10       -10.5193   -0.4787   54.3826 C.ar    1  ZINC000572148596   -0.1900
     11 C11       -10.9714   -1.6652   53.8097 C.ar    1  ZINC000572148596    0.3400
     12 N12       -12.0540   -2.3256   54.3699 N.3     1  ZINC000572148596   -0.4700
     13 C13       -13.2125   -1.4290   54.4919 C.3     1  ZINC000572148596    0.0300
     14 C14       -14.4000   -2.2123   55.0578 C.3     1  ZINC000572148596    0.0900
     15 H15       -15.2444   -1.5385   55.2035 H       1  ZINC000572148596    0.1100
     16 C16       -14.7939   -3.3207   54.0793 C.3     1  ZINC000572148596   -0.1800
     17 O17       -14.0288   -2.7910   56.3118 O.3     1  ZINC000572148596   -0.3700
     18 C18       -12.9041   -3.6705   56.2297 C.3     1  ZINC000572148596    0.0800
     19 H19       -13.1406   -4.5029   55.5671 H       1  ZINC000572148596    0.0700
     20 C20       -12.5713   -4.2059   57.6238 C.3     1  ZINC000572148596   -0.1400
     21 C21       -11.7015   -2.9019   55.6757 C.3     1  ZINC000572148596    0.0300
     22 N22       -10.3810   -2.1714   52.7360 N.ar    1  ZINC000572148596   -0.5200
     23 C23        -9.3538   -1.5752   52.1668 C.ar    1  ZINC000572148596    0.1900
     24 N24        -7.0617    1.3573   52.4904 N.2     1  ZINC000572148596   -0.4700
     25 C25        -3.8590    2.3338   50.8643 C.2     1  ZINC000572148596    0.0400
     26 N26        -2.7812    1.8458   51.3791 N.2     1  ZINC000572148596   -0.4500
     27 C27        -1.7953    1.5619   50.5522 C.2     1  ZINC000572148596    0.0400
     28 C28        -2.0560    1.8251   49.2680 C.2     1  ZINC000572148596   -0.2500
     29 S29        -3.6914    2.4732   49.1685 S.3     1  ZINC000572148596    0.1400
     30 H30        -5.9850    3.7745   49.9932 H       1  ZINC000572148596    0.0800
     31 H31        -6.6009    4.2533   51.5931 H       1  ZINC000572148596    0.0700
     32 H32        -4.9892    4.7909   51.0626 H       1  ZINC000572148596    0.0800
     33 H33        -9.0809    1.0925   54.2528 H       1  ZINC000572148596    0.1500
     34 H34       -11.0075   -0.0754   55.2575 H       1  ZINC000572148596    0.1500
     35 H35       -12.9667   -0.6057   55.1627 H       1  ZINC000572148596    0.0600
     36 H36       -13.4721   -1.0339   53.5097 H       1  ZINC000572148596    0.1000
     37 H37       -13.9496   -3.9950   53.9352 H       1  ZINC000572148596    0.0700
     38 H38       -15.6393   -3.8780   54.4828 H       1  ZINC000572148596    0.0600
     39 H39       -15.0732   -2.8787   53.1229 H       1  ZINC000572148596    0.0700
     40 H40       -13.4293   -4.7498   58.0185 H       1  ZINC000572148596    0.0700
     41 H41       -11.7140   -4.8760   57.5605 H       1  ZINC000572148596    0.0700
     42 H42       -12.3333   -3.3730   58.2856 H       1  ZINC000572148596    0.0600
     43 H43       -10.8579   -3.5819   55.5576 H       1  ZINC000572148596    0.1000
     44 H44       -11.4315   -2.1022   56.3655 H       1  ZINC000572148596    0.0600
     45 H45        -8.8960   -2.0147   51.2929 H       1  ZINC000572148596    0.1700
     46 H46        -0.8537    1.1506   50.8847 H       1  ZINC000572148596    0.1800
     47 H47        -1.3843    1.6651   48.4376 H       1  ZINC000572148596    0.1800
@<TRIPOS>BOND
     1     1     2    1
     2     1    30    1
     3     1    31    1
     4     1    32    1
     5     2     3    1
     6     2     4    1
     7     2    25    1
     8     4    24    1
     9     4     5    2
    10     5     6    1
    11     6     7    1
    12     7     8    1
    13     7    24    2
    14     8    23   ar
    15     8     9   ar
    16     9    10   ar
    17     9    33    1
    18    10    11   ar
    19    10    34    1
    20    11    12    1
    21    11    22   ar
    22    12    21    1
    23    12    13    1
    24    13    14    1
    25    13    35    1
    26    13    36    1
    27    14    15    1
    28    14    16    1
    29    14    17    1
    30    16    37    1
    31    16    38    1
    32    16    39    1
    33    17    18    1
    34    18    19    1
    35    18    20    1
    36    18    21    1
    37    20    40    1
    38    20    41    1
    39    20    42    1
    40    21    43    1
    41    21    44    1
    42    22    23   ar
    43    23    45    1
    44    25    29    1
    45    25    26    2
    46    26    27    1
    47    27    28    2
    48    27    46    1
    49    28    29    1
    50    28    47    1
@<TRIPOS>SUBSTRUCTURE
     1 ZINC000572148596        1 TEMP              0 ****  ****    0 ROOT


##########                                Name:    ZINC000848949366
##########                DOCK_Rotatable_Bonds:                   8
##########                         Heavy_Atoms:                  25
##########                    Molecular_Weight:             368.773
##########                DOCK_Rotatable_Bonds:                   8
##########                       Formal_Charge:          0.00999947
##########                     HBond_Acceptors:                   9
##########                        HBond_Donors:                   3
##########                         Heavy_Atoms:                  25
##########                          Grid_Score:          -35.670448
##########                     Grid_vdw_energy:          -34.723385
##########                      Grid_es_energy:           -0.947064
##########           Internal_energy_repulsive:           12.417308

@<TRIPOS>MOLECULE
ZINC000848949366
 42 43 1 0 0
SMALL
USER_CHARGES


@<TRIPOS>ATOM
      1 C1         -2.6420    3.3549   54.7691 C.3     1  ZINC000848949366   -0.1500
      2 C2         -3.7017    2.9659   53.7362 C.3     1  ZINC000848949366    0.0600
      3 O3         -3.6071    3.8355   52.6063 O.3     1  ZINC000848949366   -0.3500
      4 C4         -4.5633    3.7181   51.6612 C.2     1  ZINC000848949366    0.5400
      5 O5         -5.0525    4.7149   51.1636 O.2     1  ZINC000848949366   -0.4800
      6 C6         -4.9967    2.4362   51.2490 C.2     1  ZINC000848949366   -0.2300
      7 C7         -4.3319    1.7473   50.2966 C.2     1  ZINC000848949366    0.2000
      8 C8         -3.1070    2.3538   49.6618 C.3     1  ZINC000848949366    0.1000
      9 O9         -1.9461    2.0783   50.4893 O.3     1  ZINC000848949366   -0.3500
     10 C10        -0.7360    2.2396   49.9188 C.2     1  ZINC000848949366    0.5100
     11 O11        -0.6459    2.3855   48.7158 O.2     1  ZINC000848949366   -0.4800
     12 C12         0.4780    2.2390   50.7538 C.ar    1  ZINC000848949366   -0.1600
     13 C13         0.4791    2.8859   51.9927 C.ar    1  ZINC000848949366   -0.0300
     14 C14         1.6172    2.8819   52.7687 C.ar    1  ZINC000848949366   -0.1300
     15 C15         2.7633    2.2388   52.3262 C.ar    1  ZINC000848949366    0.0200
     16 Cl16        4.1908    2.2421   53.3142 Cl      1  ZINC000848949366   -0.0500
     17 C17         2.7755    1.5947   51.1030 C.ar    1  ZINC000848949366   -0.1500
     18 C18         1.6373    1.5842   50.3122 C.ar    1  ZINC000848949366    0.1900
     19 O19         1.6477    0.9528   49.1118 O.3     1  ZINC000848949366   -0.4700
     20 N20        -4.7511    0.5097   49.8998 N.am    1  ZINC000848949366   -0.6400
     21 C21        -5.8259   -0.1079   50.4061 C.2     1  ZINC000848949366    0.7100
     22 O22        -6.1212   -1.2107   49.9888 O.2     1  ZINC000848949366   -0.5600
     23 N23        -6.5907    0.4533   51.3635 N.am    1  ZINC000848949366   -0.7100
     24 C24        -6.2191    1.7869   51.8653 C.3     1  ZINC000848949366    0.2000
     25 H25        -6.0606    1.7090   52.9409 H       1  ZINC000848949366    0.0900
     26 C26        -7.4055    2.7250   51.6345 C.3     1  ZINC000848949366   -0.1700
     27 H27        -2.7140    2.6916   55.6311 H       1  ZINC000848949366    0.0800
     28 H28        -1.6510    3.2661   54.3240 H       1  ZINC000848949366    0.0700
     29 H29        -2.8062    4.3842   55.0880 H       1  ZINC000848949366    0.0700
     30 H30        -3.5374    1.9366   53.4173 H       1  ZINC000848949366    0.0700
     31 H31        -4.6927    3.0547   54.1813 H       1  ZINC000848949366    0.0700
     32 H32        -2.9586    1.9213   48.6723 H       1  ZINC000848949366    0.1100
     33 H33        -3.2409    3.4317   49.5708 H       1  ZINC000848949366    0.1000
     34 H34        -0.4110    3.3886   52.3409 H       1  ZINC000848949366    0.1500
     35 H35         1.6169    3.3822   53.7258 H       1  ZINC000848949366    0.1500
     36 H36         3.6719    1.0960   50.7649 H       1  ZINC000848949366    0.1500
     37 H37         0.7902    0.9435   48.6647 H       1  ZINC000848949366    0.4000
     38 H38        -4.2418    0.0524   49.2125 H       1  ZINC000848949366    0.4300
     39 H39        -7.3655   -0.0119   51.7160 H       1  ZINC000848949366    0.4400
     40 H40        -8.2760    2.3492   52.1722 H       1  ZINC000848949366    0.0700
     41 H41        -7.1564    3.7220   51.9981 H       1  ZINC000848949366    0.0700
     42 H42        -7.6293    2.7724   50.5687 H       1  ZINC000848949366    0.0700
@<TRIPOS>BOND
     1     1     2    1
     2     1    27    1
     3     1    28    1
     4     1    29    1
     5     2     3    1
     6     2    30    1
     7     2    31    1
     8     3     4    1
     9     4     5    2
    10     4     6    1
    11     6    24    1
    12     6     7    2
    13     7     8    1
    14     7    20    1
    15     8     9    1
    16     8    32    1
    17     8    33    1
    18     9    10    1
    19    10    11    2
    20    10    12    1
    21    12    18   ar
    22    12    13   ar
    23    13    14   ar
    24    13    34    1
    25    14    15   ar
    26    14    35    1
    27    15    16    1
    28    15    17   ar
    29    17    18   ar
    30    17    36    1
    31    18    19    1
    32    19    37    1
    33    20    21   am
    34    20    38    1
    35    21    22    2
    36    21    23   am
    37    23    24    1
    38    23    39    1
    39    24    25    1
    40    24    26    1
    41    26    40    1
    42    26    41    1
    43    26    42    1
@<TRIPOS>SUBSTRUCTURE
     1 ZINC000848949366        1 TEMP              0 ****  ****    0 ROOT


##########                                Name:    ZINC000842947763
##########                DOCK_Rotatable_Bonds:                   7
##########                         Heavy_Atoms:                  24
##########                    Molecular_Weight:             365.373
##########                DOCK_Rotatable_Bonds:                   7
##########                       Formal_Charge:          0.00999997
##########                     HBond_Acceptors:                   9
##########                        HBond_Donors:                   0
##########                         Heavy_Atoms:                  24
##########                          Grid_Score:          -35.663906
##########                     Grid_vdw_energy:          -35.805878
##########                      Grid_es_energy:            0.141971
##########           Internal_energy_repulsive:           34.565281

@<TRIPOS>MOLECULE
ZINC000842947763
 42 43 1 0 0
SMALL
USER_CHARGES


@<TRIPOS>ATOM
      1 C1        -11.7434   -1.2364   56.8785 C.3     1  ZINC000842947763   -0.1600
      2 C2        -11.7068   -2.0630   55.5916 C.3     1  ZINC000842947763   -0.1000
      3 H3        -10.7449   -2.5695   55.5123 H       1  ZINC000842947763    0.1000
      4 C4        -11.8976   -1.1396   54.3867 C.3     1  ZINC000842947763    0.0800
      5 O5        -10.6325   -0.5089   54.0551 O.3     1  ZINC000842947763   -0.3500
      6 C6         -9.9310   -1.0433   53.0361 C.2     1  ZINC000842947763    0.5200
      7 O7        -10.3090   -2.0724   52.5121 O.2     1  ZINC000842947763   -0.5100
      8 C8         -8.7052   -0.3797   52.5574 C.ar    1  ZINC000842947763   -0.1600
      9 C9         -7.8281   -1.0531   51.7014 C.ar    1  ZINC000842947763   -0.0200
     10 C10        -6.6874   -0.4288   51.2586 C.ar    1  ZINC000842947763   -0.1700
     11 C11        -6.3959    0.8807   51.6599 C.ar    1  ZINC000842947763    0.2000
     12 C12        -7.2740    1.5416   52.5110 C.ar    1  ZINC000842947763   -0.1500
     13 C13        -8.4136    0.9297   52.9514 C.ar    1  ZINC000842947763   -0.0100
     14 C14        -6.7265    2.9255   52.7827 C.3     1  ZINC000842947763   -0.0800
     15 C15        -5.4167    2.9842   51.9798 C.3     1  ZINC000842947763    0.1100
     16 N16        -5.3072    1.6774   51.3267 N.am    1  ZINC000842947763   -0.9400
     17 S17        -4.0645    1.2158   50.3344 S.o2    1  ZINC000842947763    2.6100
     18 C18        -4.1060    2.4114   48.9708 C.3     1  ZINC000842947763   -0.6700
     19 O19        -2.8979    1.4009   51.1245 O.2     1  ZINC000842947763   -0.9300
     20 O20        -4.4423   -0.0754   49.8771 O.2     1  ZINC000842947763   -0.9400
     21 C21       -12.8295   -3.1020   55.6207 C.3     1  ZINC000842947763   -0.1600
     22 C22       -12.5833   -4.0869   56.7654 C.3     1  ZINC000842947763    0.4600
     23 F23       -13.2367   -5.2932   56.4914 F       1  ZINC000842947763   -0.1800
     24 F24       -11.2097   -4.3192   56.8935 F       1  ZINC000842947763   -0.1800
     25 F25       -13.0784   -3.5489   57.9580 F       1  ZINC000842947763   -0.1800
     26 H26       -11.4691   -1.8677   57.7237 H       1  ZINC000842947763    0.0700
     27 H27       -11.0383   -0.4089   56.7990 H       1  ZINC000842947763    0.0700
     28 H28       -12.7489   -0.8437   57.0296 H       1  ZINC000842947763    0.0600
     29 H29       -12.2477   -1.7219   53.5344 H       1  ZINC000842947763    0.0800
     30 H30       -12.6333   -0.3727   54.6296 H       1  ZINC000842947763    0.0800
     31 H31        -8.0471   -2.0634   51.3889 H       1  ZINC000842947763    0.1500
     32 H32        -6.0115   -0.9508   50.5974 H       1  ZINC000842947763    0.1500
     33 H33        -9.0867    1.4559   53.6121 H       1  ZINC000842947763    0.1400
     34 H34        -7.4233    3.6863   52.4308 H       1  ZINC000842947763    0.1000
     35 H35        -6.5270    3.0538   53.8466 H       1  ZINC000842947763    0.1000
     36 H36        -5.4660    3.7770   51.2334 H       1  ZINC000842947763    0.1000
     37 H37        -4.5706    3.1450   52.6479 H       1  ZINC000842947763    0.0900
     38 H38        -3.9600    3.4172   49.3650 H       1  ZINC000842947763    0.1300
     39 H39        -3.3118    2.1806   48.2609 H       1  ZINC000842947763    0.1400
     40 H40        -5.0711    2.3550   48.4674 H       1  ZINC000842947763    0.1300
     41 H41       -13.7851   -2.6003   55.7724 H       1  ZINC000842947763    0.1200
     42 H42       -12.8490   -3.6425   54.6743 H       1  ZINC000842947763    0.1100
@<TRIPOS>BOND
     1     1     2    1
     2     1    26    1
     3     1    27    1
     4     1    28    1
     5     2     3    1
     6     2     4    1
     7     2    21    1
     8     4     5    1
     9     4    29    1
    10     4    30    1
    11     5     6    1
    12     6     7    2
    13     6     8    1
    14     8    13   ar
    15     8     9   ar
    16     9    10   ar
    17     9    31    1
    18    10    11   ar
    19    10    32    1
    20    11    16    1
    21    11    12   ar
    22    12    13   ar
    23    12    14    1
    24    13    33    1
    25    14    15    1
    26    14    34    1
    27    14    35    1
    28    15    16    1
    29    15    36    1
    30    15    37    1
    31    16    17   am
    32    17    18    1
    33    17    19    2
    34    17    20    2
    35    18    38    1
    36    18    39    1
    37    18    40    1
    38    21    22    1
    39    21    41    1
    40    21    42    1
    41    22    23    1
    42    22    24    1
    43    22    25    1
@<TRIPOS>SUBSTRUCTURE
     1 ZINC000842947763        1 TEMP              0 ****  ****    0 ROOT


##########                                Name:    ZINC000022858610
##########                DOCK_Rotatable_Bonds:                   9
##########                         Heavy_Atoms:                  26
##########                    Molecular_Weight:             369.343
##########                DOCK_Rotatable_Bonds:                   9
##########                       Formal_Charge:          0.00999956
##########                     HBond_Acceptors:                   9
##########                        HBond_Donors:                   2
##########                         Heavy_Atoms:                  26
##########                          Grid_Score:          -35.651310
##########                     Grid_vdw_energy:          -35.868809
##########                      Grid_es_energy:            0.217497
##########           Internal_energy_repulsive:           20.175972

@<TRIPOS>MOLECULE
ZINC000022858610
 44 45 1 0 0
SMALL
USER_CHARGES


@<TRIPOS>ATOM
      1 C1         -1.7933    3.5518   50.6449 C.3     1  <0>         0.0100
      2 N2         -2.5255    2.4948   49.9348 N.3     1  <0>        -0.5300
      3 C3         -1.6037    1.4829   49.4013 C.3     1  <0>         0.0200
      4 C4         -3.5367    1.8792   50.8045 C.3     1  <0>         0.1500
      5 H5         -3.0510    1.1897   51.4949 H       1  <0>         0.1200
      6 C6         -4.5487    1.1152   49.9484 C.3     1  <0>         0.1300
      7 N7         -5.4115    0.3088   50.8152 N.am    1  <0>        -0.6800
      8 C8         -6.7223    0.6032   50.9234 C.2     1  <0>         0.5100
      9 O9         -7.1882    1.5355   50.3016 O.2     1  <0>        -0.5100
     10 C10        -7.6015   -0.2178   51.8085 C.2     1  <0>         0.5200
     11 O11        -7.2511   -1.3284   52.1504 O.2     1  <0>        -0.4900
     12 N12        -8.7841    0.2746   52.2277 N.am    1  <0>        -0.6500
     13 C13        -9.6066   -0.4937   53.0558 C.ar    1  <0>         0.1900
     14 C14       -10.1374   -1.6908   52.5927 C.ar    1  <0>        -0.1200
     15 C15       -10.9501   -2.4476   53.4139 C.ar    1  <0>        -0.0700
     16 C16       -11.2354   -2.0148   54.6958 C.ar    1  <0>        -0.1300
     17 C17       -10.7090   -0.8229   55.1600 C.ar    1  <0>        -0.0500
     18 C18        -9.8908   -0.0644   54.3465 C.ar    1  <0>        -0.2100
     19 C19        -9.3176    1.2339   54.8531 C.3     1  <0>         0.5100
     20 F20        -9.9045    2.3021   54.1665 F       1  <0>        -0.1700
     21 F21        -9.5815    1.3577   56.2214 F       1  <0>        -0.1800
     22 F22        -7.9347    1.2472   54.6418 F       1  <0>        -0.1700
     23 C23        -4.2488    2.9536   51.5853 C.2     1  <0>        -0.0500
     24 C24        -4.1506    3.1586   52.9111 C.2     1  <0>        -0.1900
     25 C25        -4.9803    4.2616   53.2175 C.2     1  <0>        -0.2100
     26 C26        -5.5359    4.6647   52.0608 C.2     1  <0>        -0.0400
     27 O27        -5.0848    3.8724   51.0745 O.3     1  <0>        -0.1700
     28 H28        -1.1877    4.1146   49.9345 H       1  <0>         0.0700
     29 H29        -2.5027    4.2229   51.1292 H       1  <0>         0.0700
     30 H30        -1.1460    3.1024   51.3980 H       1  <0>         0.0500
     31 H31        -1.0459    1.0312   50.2216 H       1  <0>         0.0300
     32 H32        -2.1719    0.7123   48.8805 H       1  <0>         0.0700
     33 H33        -0.9092    1.9547   48.7062 H       1  <0>         0.0800
     34 H34        -5.1581    1.8236   49.3870 H       1  <0>         0.0900
     35 H35        -4.0186    0.4625   49.2548 H       1  <0>         0.0800
     36 H36        -5.0395   -0.4371   51.3113 H       1  <0>         0.4200
     37 H37        -9.0641    1.1621   51.9546 H       1  <0>         0.4300
     38 H38        -9.9151   -2.0294   51.5915 H       1  <0>         0.1500
     39 H39       -11.3633   -3.3784   53.0544 H       1  <0>         0.1400
     40 H40       -11.8712   -2.6085   55.3358 H       1  <0>         0.1400
     41 H41       -10.9346   -0.4875   56.1615 H       1  <0>         0.1500
     42 H42        -3.5531    2.5895   53.6078 H       1  <0>         0.1500
     43 H43        -5.1380    4.6969   54.1933 H       1  <0>         0.1500
     44 H44        -6.2248    5.4883   51.9442 H       1  <0>         0.2000
@<TRIPOS>BOND
     1     1     2    1
     2     1    28    1
     3     1    29    1
     4     1    30    1
     5     2     3    1
     6     2     4    1
     7     3    31    1
     8     3    32    1
     9     3    33    1
    10     4     5    1
    11     4     6    1
    12     4    23    1
    13     6     7    1
    14     6    34    1
    15     6    35    1
    16     7     8   am
    17     7    36    1
    18     8     9    2
    19     8    10    1
    20    10    11    2
    21    10    12   am
    22    12    13    1
    23    12    37    1
    24    13    18   ar
    25    13    14   ar
    26    14    15   ar
    27    14    38    1
    28    15    16   ar
    29    15    39    1
    30    16    17   ar
    31    16    40    1
    32    17    18   ar
    33    17    41    1
    34    18    19    1
    35    19    20    1
    36    19    21    1
    37    19    22    1
    38    23    27    1
    39    23    24    2
    40    24    25    1
    41    24    42    1
    42    25    26    2
    43    25    43    1
    44    26    27    1
    45    26    44    1
@<TRIPOS>SUBSTRUCTURE
     1 <0>         1 TEMP              0 ****  ****    0 ROOT


##########                                Name:    ZINC000623695407
##########                DOCK_Rotatable_Bonds:                  10
##########                         Heavy_Atoms:                  27
##########                    Molecular_Weight:             368.479
##########                DOCK_Rotatable_Bonds:                  10
##########                       Formal_Charge:           0.0299989
##########                     HBond_Acceptors:                   6
##########                        HBond_Donors:                   2
##########                         Heavy_Atoms:                  27
##########                          Grid_Score:          -35.639893
##########                     Grid_vdw_energy:          -34.922256
##########                      Grid_es_energy:           -0.717636
##########           Internal_energy_repulsive:            8.822237

@<TRIPOS>MOLECULE
ZINC000623695407
 55 57 1 0 0
SMALL
USER_CHARGES


@<TRIPOS>ATOM
      1 C1         -9.4041   -2.4550   61.1147 C.3     1  ZINC000623695407    0.0300
      2 O2         -8.8173   -2.6728   59.8301 O.3     1  ZINC000623695407   -0.3200
      3 C3         -9.6413   -2.5860   58.7527 C.ar    1  ZINC000623695407    0.1300
      4 C4        -10.0058   -1.3433   58.2552 C.ar    1  ZINC000623695407   -0.2100
      5 C5        -10.8430   -1.2578   57.1596 C.ar    1  ZINC000623695407   -0.0600
      6 C6        -11.3179   -2.4093   56.5594 C.ar    1  ZINC000623695407   -0.1100
      7 C7        -12.2315   -2.3131   55.3648 C.3     1  ZINC000623695407    0.0600
      8 N8        -11.4474   -1.9495   54.1768 N.3     1  ZINC000623695407   -0.4600
      9 C9        -11.0517   -3.1500   53.4171 C.3     1  ZINC000623695407    0.0000
     10 C10       -11.3786   -2.3764   52.1321 C.3     1  ZINC000623695407   -0.1300
     11 C11       -12.3298   -1.5953   53.0494 C.3     1  ZINC000623695407    0.0100
     12 H12       -13.3240   -2.0365   53.1208 H       1  ZINC000623695407    0.0900
     13 C13       -12.3683   -0.0950   52.7519 C.3     1  ZINC000623695407    0.1600
     14 N14       -11.2413    0.5638   53.4168 N.am    1  ZINC000623695407   -0.7400
     15 C15       -10.6894    1.6667   52.8732 C.2     1  ZINC000623695407    0.7100
     16 O16       -11.1258    2.1140   51.8303 O.2     1  ZINC000623695407   -0.5900
     17 N17        -9.6536    2.2737   53.4858 N.am    1  ZINC000623695407   -0.7400
     18 C18        -9.0525    3.4715   52.8940 C.3     1  ZINC000623695407    0.1700
     19 H19        -9.2842    3.5062   51.8295 H       1  ZINC000623695407    0.0900
     20 C20        -9.6169    4.7174   53.5797 C.3     1  ZINC000623695407   -0.1600
     21 C21        -7.5350    3.4278   53.0845 C.3     1  ZINC000623695407   -0.0900
     22 C22        -6.9284    2.4912   52.0717 C.ar    1  ZINC000623695407   -0.0300
     23 C23        -7.0008    1.1173   52.2428 C.ar    1  ZINC000623695407   -0.1700
     24 C24        -6.4328    0.2895   51.2929 C.ar    1  ZINC000623695407    0.1000
     25 N25        -5.8275    0.7926   50.2350 N.ar    1  ZINC000623695407   -0.4900
     26 C26        -5.7396    2.0938   50.0397 C.ar    1  ZINC000623695407    0.1000
     27 C27        -6.2894    2.9830   50.9437 C.ar    1  ZINC000623695407   -0.1700
     28 C28       -10.9556   -3.6489   57.0532 C.ar    1  ZINC000623695407   -0.0700
     29 C29       -10.1145   -3.7399   58.1452 C.ar    1  ZINC000623695407   -0.1500
     30 H30        -8.6391   -2.5530   61.8850 H       1  ZINC000623695407    0.1000
     31 H31        -9.8324   -1.4533   61.1535 H       1  ZINC000623695407    0.0600
     32 H32       -10.1885   -3.1923   61.2857 H       1  ZINC000623695407    0.0600
     33 H33        -9.6356   -0.4436   58.7240 H       1  ZINC000623695407    0.1300
     34 H34       -11.1271   -0.2906   56.7719 H       1  ZINC000623695407    0.1200
     35 H35       -12.7162   -3.2753   55.1996 H       1  ZINC000623695407    0.0600
     36 H36       -12.9891   -1.5510   55.5472 H       1  ZINC000623695407    0.0700
     37 H37        -9.9952   -3.3986   53.5174 H       1  ZINC000623695407    0.0900
     38 H38       -11.7048   -4.0060   53.5867 H       1  ZINC000623695407    0.0700
     39 H39       -10.5487   -1.7863   51.7431 H       1  ZINC000623695407    0.1000
     40 H40       -11.8818   -2.9706   51.3692 H       1  ZINC000623695407    0.0800
     41 H41       -12.2987    0.0640   51.6758 H       1  ZINC000623695407    0.0700
     42 H42       -13.3041    0.3247   53.1214 H       1  ZINC000623695407    0.0700
     43 H43       -10.8925    0.2063   54.2483 H       1  ZINC000623695407    0.3900
     44 H44        -9.3063    1.9175   54.3185 H       1  ZINC000623695407    0.3900
     45 H45        -9.1696    5.6085   53.1393 H       1  ZINC000623695407    0.0700
     46 H46       -10.6980    4.7485   53.4439 H       1  ZINC000623695407    0.0700
     47 H47        -9.3852    4.6826   54.6442 H       1  ZINC000623695407    0.0600
     48 H48        -7.1227    4.4274   52.9477 H       1  ZINC000623695407    0.1000
     49 H49        -7.3051    3.0743   54.0897 H       1  ZINC000623695407    0.0800
     50 H50        -7.4945    0.6991   53.1075 H       1  ZINC000623695407    0.1300
     51 H51        -6.4849   -0.7820   51.4188 H       1  ZINC000623695407    0.1500
     52 H52        -5.2357    2.4689   49.1611 H       1  ZINC000623695407    0.1600
     53 H53        -6.2145    4.0476   50.7781 H       1  ZINC000623695407    0.1400
     54 H54       -11.3277   -4.5470   56.5823 H       1  ZINC000623695407    0.1200
     55 H55        -9.8318   -4.7084   58.5305 H       1  ZINC000623695407    0.1300
@<TRIPOS>BOND
     1     1     2    1
     2     1    30    1
     3     1    31    1
     4     1    32    1
     5     2     3    1
     6     3    29   ar
     7     3     4   ar
     8     4     5   ar
     9     4    33    1
    10     5     6   ar
    11     5    34    1
    12     6     7    1
    13     6    28   ar
    14     7     8    1
    15     7    35    1
    16     7    36    1
    17     8    11    1
    18     8     9    1
    19     9    10    1
    20     9    37    1
    21     9    38    1
    22    10    11    1
    23    10    39    1
    24    10    40    1
    25    11    12    1
    26    11    13    1
    27    13    14    1
    28    13    41    1
    29    13    42    1
    30    14    15   am
    31    14    43    1
    32    15    16    2
    33    15    17   am
    34    17    18    1
    35    17    44    1
    36    18    19    1
    37    18    20    1
    38    18    21    1
    39    20    45    1
    40    20    46    1
    41    20    47    1
    42    21    22    1
    43    21    48    1
    44    21    49    1
    45    22    27   ar
    46    22    23   ar
    47    23    24   ar
    48    23    50    1
    49    24    25   ar
    50    24    51    1
    51    25    26   ar
    52    26    27   ar
    53    26    52    1
    54    27    53    1
    55    28    29   ar
    56    28    54    1
    57    29    55    1
@<TRIPOS>SUBSTRUCTURE
     1 ZINC000623695407        1 TEMP              0 ****  ****    0 ROOT


##########                                Name:    ZINC000174621331
##########                DOCK_Rotatable_Bonds:                   8
##########                         Heavy_Atoms:                  25
##########                    Molecular_Weight:             366.438
##########                DOCK_Rotatable_Bonds:                   8
##########                       Formal_Charge:        -5.96046e-08
##########                     HBond_Acceptors:                   8
##########                        HBond_Donors:                   3
##########                         Heavy_Atoms:                  25
##########                          Grid_Score:          -35.623169
##########                     Grid_vdw_energy:          -33.348530
##########                      Grid_es_energy:           -2.274639
##########           Internal_energy_repulsive:           14.336096

@<TRIPOS>MOLECULE
ZINC000174621331
 47 48 1 0 0
SMALL
USER_CHARGES


@<TRIPOS>ATOM
      1 C1         -9.8190    4.4979   50.1639 C.3     1  ZINC000174621331    0.0300
      2 O2         -8.8608    3.4521   49.9889 O.3     1  ZINC000174621331   -0.3800
      3 C3         -7.6731    3.6159   50.7664 C.3     1  ZINC000174621331    0.0500
      4 C4         -6.7380    2.4293   50.5252 C.3     1  ZINC000174621331    0.2400
      5 H5         -6.6642    2.2365   49.4549 H       1  ZINC000174621331    0.1300
      6 N6         -5.4089    2.7386   51.0584 N.am    1  ZINC000174621331   -0.7200
      7 C7         -4.3082    2.2680   50.4392 C.2     1  ZINC000174621331    0.5600
      8 O8         -4.4182    1.5857   49.4392 O.2     1  ZINC000174621331   -0.5300
      9 C9         -2.9669    2.5815   50.9762 C.ar    1  ZINC000174621331   -0.1600
     10 C10        -2.8380    3.2236   52.2086 C.ar    1  ZINC000174621331   -0.0200
     11 C11        -1.5832    3.5130   52.7043 C.ar    1  ZINC000174621331   -0.1100
     12 C12        -1.4420    4.2063   54.0348 C.3     1  ZINC000174621331   -0.1200
     13 C13        -0.4546    3.1676   51.9828 C.ar    1  ZINC000174621331    0.0400
     14 C14         0.9127    3.4863   52.5306 C.3     1  ZINC000174621331   -0.1600
     15 C15        -0.5754    2.5304   50.7603 C.ar    1  ZINC000174621331   -0.6800
     16 S16         0.8687    2.0944   49.8498 S.o2    1  ZINC000174621331    2.7000
     17 N17         0.3945    1.0652   48.6421 N.am    1  ZINC000174621331   -1.2500
     18 O18         1.3149    3.2830   49.2119 O.2     1  ZINC000174621331   -0.9500
     19 O19         1.6830    1.3320   50.7300 O.2     1  ZINC000174621331   -0.9600
     20 C20        -1.8238    2.2315   50.2555 C.ar    1  ZINC000174621331    0.0400
     21 C21        -7.2859    1.2088   51.2189 C.2     1  ZINC000174621331   -0.0200
     22 C22        -6.6735    0.0146   51.3104 C.2     1  ZINC000174621331   -0.1900
     23 C23        -7.5377   -0.8340   52.0399 C.2     1  ZINC000174621331   -0.2100
     24 C24        -8.6264   -0.1076   52.3504 C.2     1  ZINC000174621331    0.0000
     25 C25        -9.8206   -0.5979   53.1280 C.3     1  ZINC000174621331   -0.0800
     26 O26        -8.4658    1.1306   51.8557 O.3     1  ZINC000174621331   -0.1600
     27 H27       -10.1227    4.5411   51.2098 H       1  ZINC000174621331    0.0400
     28 H28        -9.3742    5.4502   49.8751 H       1  ZINC000174621331    0.0400
     29 H29       -10.6907    4.3000   49.5402 H       1  ZINC000174621331    0.0900
     30 H30        -7.1720    4.5387   50.4743 H       1  ZINC000174621331    0.0700
     31 H31        -7.9346    3.6633   51.8235 H       1  ZINC000174621331    0.0700
     32 H32        -5.3212    3.2820   51.8570 H       1  ZINC000174621331    0.4100
     33 H33        -3.7183    3.4938   52.7728 H       1  ZINC000174621331    0.1400
     34 H34        -1.3844    3.4613   54.8285 H       1  ZINC000174621331    0.0800
     35 H35        -0.5339    4.8092   54.0358 H       1  ZINC000174621331    0.0800
     36 H36        -2.3056    4.8499   54.2026 H       1  ZINC000174621331    0.0700
     37 H37         1.2655    2.6511   53.1357 H       1  ZINC000174621331    0.1100
     38 H38         1.6045    3.6551   51.7054 H       1  ZINC000174621331    0.0700
     39 H39         0.8569    4.3835   53.1472 H       1  ZINC000174621331    0.0900
     40 H40        -0.2500    1.3592   47.9796 H       1  ZINC000174621331    0.4200
     41 H41         0.7614    0.1684   48.5974 H       1  ZINC000174621331    0.4200
     42 H42        -1.9168    1.7337   49.3015 H       1  ZINC000174621331    0.1600
     43 H43        -5.7075   -0.2460   50.9041 H       1  ZINC000174621331    0.1500
     44 H44        -7.3582   -1.8673   52.2978 H       1  ZINC000174621331    0.1500
     45 H45        -9.6603   -0.4189   54.1912 H       1  ZINC000174621331    0.0800
     46 H46       -10.7121   -0.0636   52.7999 H       1  ZINC000174621331    0.0800
     47 H47        -9.9530   -1.6660   52.9554 H       1  ZINC000174621331    0.0900
@<TRIPOS>BOND
     1     1     2    1
     2     1    27    1
     3     1    28    1
     4     1    29    1
     5     2     3    1
     6     3     4    1
     7     3    30    1
     8     3    31    1
     9     4     5    1
    10     4     6    1
    11     4    21    1
    12     6     7   am
    13     6    32    1
    14     7     8    2
    15     7     9    1
    16     9    20   ar
    17     9    10   ar
    18    10    11   ar
    19    10    33    1
    20    11    12    1
    21    11    13   ar
    22    12    34    1
    23    12    35    1
    24    12    36    1
    25    13    14    1
    26    13    15   ar
    27    14    37    1
    28    14    38    1
    29    14    39    1
    30    15    16    1
    31    15    20   ar
    32    16    17   am
    33    16    18    2
    34    16    19    2
    35    17    40    1
    36    17    41    1
    37    20    42    1
    38    21    26    1
    39    21    22    2
    40    22    23    1
    41    22    43    1
    42    23    24    2
    43    23    44    1
    44    24    25    1
    45    24    26    1
    46    25    45    1
    47    25    46    1
    48    25    47    1
@<TRIPOS>SUBSTRUCTURE
     1 ZINC000174621331        1 TEMP              0 ****  ****    0 ROOT


##########                                Name:    ZINC000609484313
##########                DOCK_Rotatable_Bonds:                  10
##########                         Heavy_Atoms:                  26
##########                    Molecular_Weight:             361.487
##########                DOCK_Rotatable_Bonds:                  10
##########                       Formal_Charge:          -0.0200004
##########                     HBond_Acceptors:                   7
##########                        HBond_Donors:                   1
##########                         Heavy_Atoms:                  26
##########                          Grid_Score:          -35.610474
##########                     Grid_vdw_energy:          -32.051571
##########                      Grid_es_energy:           -3.558903
##########           Internal_energy_repulsive:           26.521891

@<TRIPOS>MOLECULE
ZINC000609484313
 57 58 1 0 0
SMALL
USER_CHARGES


@<TRIPOS>ATOM
      1 C1         -9.0308    6.1420   53.0485 C.3     1  ZINC000609484313   -0.1500
      2 C2         -8.0403    5.1934   53.7266 C.3     1  ZINC000609484313   -0.1300
      3 C3         -6.6360    5.4408   53.1721 C.3     1  ZINC000609484313   -0.1100
      4 C4         -6.4708    4.6910   51.8487 C.3     1  ZINC000609484313   -0.1100
      5 C5         -5.6917    3.3965   52.0897 C.3     1  ZINC000609484313    0.0800
      6 H6         -5.3686    3.3552   53.1298 H       1  ZINC000609484313    0.1200
      7 C7         -6.5772    2.2142   51.7913 C.2     1  ZINC000609484313    0.4900
      8 O8         -7.2866    2.2208   50.8077 O.2     1  ZINC000609484313   -0.5000
      9 N9         -6.5809    1.1495   52.6178 N.am    1  ZINC000609484313   -0.6300
     10 C10        -7.3994    0.0544   52.3406 C.2     1  ZINC000609484313    0.2400
     11 N11        -7.0757   -1.0158   51.6634 N.2     1  ZINC000609484313   -0.3900
     12 O12        -8.0007   -1.7913   51.5921 O.3     1  ZINC000609484313    0.1000
     13 C13        -9.0871   -1.3284   52.2273 C.2     1  ZINC000609484313   -0.0200
     14 C14       -10.4213   -2.0184   52.3492 C.3     1  ZINC000609484313   -0.0800
     15 C15        -8.7498   -0.1243   52.7428 C.2     1  ZINC000609484313   -0.2300
     16 N16        -4.5157    3.3618   51.2099 N.3     1  ZINC000609484313   -0.5000
     17 C17        -3.9480    2.0080   51.1427 C.3     1  ZINC000609484313    0.0400
     18 C18        -2.7770    1.9971   50.1574 C.3     1  ZINC000609484313    0.0500
     19 N19        -1.7643    2.9687   50.5934 N.3     1  ZINC000609484313   -0.5100
     20 C20        -0.5883    2.9341   49.7136 C.3     1  ZINC000609484313    0.1800
     21 H21        -0.9010    2.6891   48.6985 H       1  ZINC000609484313    0.1200
     22 C22         0.0685    4.2514   49.7204 C.1     1  ZINC000609484313    0.1700
     23 N23         0.5755    5.2680   49.7256 N.1     1  ZINC000609484313   -0.4200
     24 C24         0.3926    1.8725   50.2152 C.3     1  ZINC000609484313   -0.0800
     25 C25         1.5803    1.7812   49.2550 C.3     1  ZINC000609484313   -0.1400
     26 C26         0.8922    2.2577   51.6091 C.3     1  ZINC000609484313   -0.1500
     27 C27        -2.3320    4.3225   50.6605 C.3     1  ZINC000609484313    0.0500
     28 C28        -3.5031    4.3334   51.6459 C.3     1  ZINC000609484313    0.0400
     29 H29        -8.7390    7.1735   53.2456 H       1  ZINC000609484313    0.0500
     30 H30        -9.0279    5.9626   51.9734 H       1  ZINC000609484313    0.0500
     31 H31       -10.0313    5.9657   53.4436 H       1  ZINC000609484313    0.0500
     32 H32        -8.0433    5.3728   54.8017 H       1  ZINC000609484313    0.0600
     33 H33        -8.3321    4.1618   53.5296 H       1  ZINC000609484313    0.0600
     34 H34        -6.4941    6.5085   53.0050 H       1  ZINC000609484313    0.0800
     35 H35        -5.8949    5.0833   53.8871 H       1  ZINC000609484313    0.0600
     36 H36        -7.4532    4.4533   51.4407 H       1  ZINC000609484313    0.0700
     37 H37        -5.9258    5.3169   51.1421 H       1  ZINC000609484313    0.0800
     38 H38        -6.0145    1.1448   53.4051 H       1  ZINC000609484313    0.4200
     39 H39       -10.3827   -2.9776   51.8330 H       1  ZINC000609484313    0.0800
     40 H40       -10.6512   -2.1812   53.4021 H       1  ZINC000609484313    0.0900
     41 H41       -11.1949   -1.3952   51.9005 H       1  ZINC000609484313    0.0900
     42 H42        -9.3665    0.5485   53.3202 H       1  ZINC000609484313    0.1900
     43 H43        -3.5949    1.7124   52.1306 H       1  ZINC000609484313    0.0800
     44 H44        -4.7135    1.3090   50.8056 H       1  ZINC000609484313    0.0800
     45 H45        -2.3359    1.0007   50.1277 H       1  ZINC000609484313    0.0900
     46 H46        -3.1353    2.2664   49.1638 H       1  ZINC000609484313    0.0400
     47 H47        -0.1105    0.9068   50.2636 H       1  ZINC000609484313    0.0800
     48 H48         2.0835    2.7470   49.2066 H       1  ZINC000609484313    0.0600
     49 H49         2.2792    1.0249   49.6124 H       1  ZINC000609484313    0.0500
     50 H50         1.2245    1.5067   48.2620 H       1  ZINC000609484313    0.0700
     51 H51         1.6599    1.5526   51.9276 H       1  ZINC000609484313    0.0700
     52 H52         1.3121    3.2632   51.5796 H       1  ZINC000609484313    0.0600
     53 H53         0.0605    2.2319   52.3131 H       1  ZINC000609484313    0.0500
     54 H54        -1.5666    5.0216   50.9976 H       1  ZINC000609484313    0.0900
     55 H55        -2.6852    4.6182   49.6726 H       1  ZINC000609484313    0.0400
     56 H56        -3.9441    5.3297   51.6756 H       1  ZINC000609484313    0.0800
     57 H57        -3.1448    4.0642   52.6394 H       1  ZINC000609484313    0.0800
@<TRIPOS>BOND
     1     1     2    1
     2     1    29    1
     3     1    30    1
     4     1    31    1
     5     2     3    1
     6     2    32    1
     7     2    33    1
     8     3     4    1
     9     3    34    1
    10     3    35    1
    11     4     5    1
    12     4    36    1
    13     4    37    1
    14     5     6    1
    15     5     7    1
    16     5    16    1
    17     7     8    2
    18     7     9   am
    19     9    10    1
    20     9    38    1
    21    10    15    1
    22    10    11    2
    23    11    12    1
    24    12    13    1
    25    13    14    1
    26    13    15    2
    27    14    39    1
    28    14    40    1
    29    14    41    1
    30    15    42    1
    31    16    28    1
    32    16    17    1
    33    17    18    1
    34    17    43    1
    35    17    44    1
    36    18    19    1
    37    18    45    1
    38    18    46    1
    39    19    20    1
    40    19    27    1
    41    20    21    1
    42    20    22    1
    43    20    24    1
    44    22    23    3
    45    24    25    1
    46    24    26    1
    47    24    47    1
    48    25    48    1
    49    25    49    1
    50    25    50    1
    51    26    51    1
    52    26    52    1
    53    26    53    1
    54    27    28    1
    55    27    54    1
    56    27    55    1
    57    28    56    1
    58    28    57    1
@<TRIPOS>SUBSTRUCTURE
     1 ZINC000609484313        1 TEMP              0 ****  ****    0 ROOT


##########                                Name:    ZINC000011972961
##########                DOCK_Rotatable_Bonds:                   6
##########                         Heavy_Atoms:                  28
##########                    Molecular_Weight:             397.501
##########                DOCK_Rotatable_Bonds:                   6
##########                       Formal_Charge:                   0
##########                     HBond_Acceptors:                   8
##########                        HBond_Donors:                   1
##########                         Heavy_Atoms:                  28
##########                          Grid_Score:          -35.555244
##########                     Grid_vdw_energy:          -35.555244
##########                      Grid_es_energy:            0.000000
##########           Internal_energy_repulsive:           21.528362

@<TRIPOS>MOLECULE
ZINC000011972961
 51 54 1 0 0
SMALL
USER_CHARGES


@<TRIPOS>ATOM
      1 C1         -4.5145    3.7572   52.6723 C.3        0';      0.0000
      2 C2         -3.0378    3.6195   52.4047 C.2        0';      0.0000
      3 C3         -2.1139    4.1974   53.1828 C.2        0';      0.0000
      4 C4         -2.4109    5.0170   54.3639 C.2        0';      0.0000
      5 O5         -2.6006    6.2128   54.2426 O.2        0';      0.0000
      6 N6         -2.4735    4.4450   55.5826 N.am       0';      0.0000
      7 C7         -2.7698    5.2630   56.7614 C.3        0';      0.0000
      8 C8         -2.2451    3.0053   55.7288 C.3        0';      0.0000
      9 H9         -2.3734    2.5005   54.7713 H          0';      0.0000
     10 C10        -0.8308    2.7360   56.2980 C.3        0';      0.0000
     11 C11        -1.1217    2.5314   57.8066 C.3        0';      0.0000
     12 O12        -2.3815    1.8263   57.8142 O.3        0';      0.0000
     13 C13        -3.1993    2.4122   56.7834 C.3        0';      0.0000
     14 S14        -0.4987    3.8396   52.5961 S.3        0';      0.0000
     15 C15        -1.1399    2.8836   51.2667 C.ar       0';      0.0000
     16 N16        -0.5266    2.2135   50.2845 N.ar       0';      0.0000
     17 C17        -1.2152    1.5546   49.3807 C.ar       0';      0.0000
     18 N18        -2.5351    1.5173   49.3908 N.ar       0';      0.0000
     19 C19        -3.2342    2.1486   50.3218 C.ar       0';      0.0000
     20 N20        -4.6134    2.0988   50.3172 N.pl3      0';      0.0000
     21 C21        -5.3047    0.8968   50.7899 C.3        0';      0.0000
     22 C22        -6.6953    1.2618   51.2412 C.ar       0';      0.0000
     23 N23        -7.2073    2.4273   50.8971 N.ar       0';      0.0000
     24 C24        -8.4200    2.7889   51.2686 C.ar       0';      0.0000
     25 C25        -8.9580    4.1323   50.8483 C.3        0';      0.0000
     26 C26        -9.2030    1.9501   52.0385 C.ar       0';      0.0000
     27 C27        -8.6985    0.7160   52.4199 C.ar       0';      0.0000
     28 C28        -7.4217    0.3688   52.0064 C.ar       0';      0.0000
     29 C29        -2.5402    2.8746   51.3306 C.ar       0';      0.0000
     30 H30        -4.9175    2.7953   52.9894 H          0';      0.0000
     31 H31        -4.6741    4.4951   53.4585 H          0';      0.0000
     32 H32        -5.0200    4.0806   51.7623 H          0';      0.0000
     33 H33        -3.7845    5.6539   56.6866 H          0';      0.0000
     34 H34        -2.6812    4.6517   57.6594 H          0';      0.0000
     35 H35        -2.0642    6.0921   56.8151 H          0';      0.0000
     36 H36        -0.3998    1.8360   55.8594 H          0';      0.0000
     37 H37        -0.1781    3.5948   56.1407 H          0';      0.0000
     38 H38        -0.3411    1.9276   58.2695 H          0';      0.0000
     39 H39        -1.2164    3.4920   58.3130 H          0';      0.0000
     40 H40        -3.8202    3.2016   57.2068 H          0';      0.0000
     41 H41        -3.8285    1.6465   56.3293 H          0';      0.0000
     42 H42        -0.6840    1.0261   48.6030 H          0';      0.0000
     43 H43        -5.1251    2.8598   50.0009 H          0';      0.0000
     44 H44        -5.3646    0.1698   49.9799 H          0';      0.0000
     45 H45        -4.7532    0.4654   51.6253 H          0';      0.0000
     46 H46        -9.4751    4.0342   49.8938 H          0';      0.0000
     47 H47        -9.6548    4.4970   51.6031 H          0';      0.0000
     48 H48        -8.1335    4.8376   50.7440 H          0';      0.0000
     49 H49       -10.1953    2.2519   52.3396 H          0';      0.0000
     50 H50        -9.2878    0.0398   53.0216 H          0';      0.0000
     51 H51        -6.9971   -0.5845   52.2845 H          0';      0.0000
@<TRIPOS>BOND
     1     1     2    1
     2     1    30    1
     3     1    31    1
     4     1    32    1
     5     2    29    1
     6     2     3    2
     7     3     4    1
     8     3    14    1
     9     4     5    2
    10     4     6   am
    11     6     7    1
    12     6     8    1
    13     7    33    1
    14     7    34    1
    15     7    35    1
    16     8     9    1
    17     8    13    1
    18     8    10    1
    19    10    11    1
    20    10    36    1
    21    10    37    1
    22    11    12    1
    23    11    38    1
    24    11    39    1
    25    12    13    1
    26    13    40    1
    27    13    41    1
    28    14    15    1
    29    15    29   ar
    30    15    16   ar
    31    16    17   ar
    32    17    18   ar
    33    17    42    1
    34    18    19   ar
    35    19    20    1
    36    19    29   ar
    37    20    21    1
    38    20    43    1
    39    21    22    1
    40    21    44    1
    41    21    45    1
    42    22    28   ar
    43    22    23   ar
    44    23    24   ar
    45    24    25    1
    46    24    26   ar
    47    25    46    1
    48    25    47    1
    49    25    48    1
    50    26    27   ar
    51    26    49    1
    52    27    28   ar
    53    27    50    1
    54    28    51    1
@<TRIPOS>SUBSTRUCTURE
     1 0';        1 TEMP              0 ****  ****    0 ROOT


##########                                Name:    ZINC000373864439
##########                DOCK_Rotatable_Bonds:                   7
##########                         Heavy_Atoms:                  23
##########                    Molecular_Weight:              344.45
##########                DOCK_Rotatable_Bonds:                   7
##########                       Formal_Charge:          -0.0300001
##########                     HBond_Acceptors:                   7
##########                        HBond_Donors:                   1
##########                         Heavy_Atoms:                  23
##########                          Grid_Score:          -35.539070
##########                     Grid_vdw_energy:          -32.733631
##########                      Grid_es_energy:           -2.805438
##########           Internal_energy_repulsive:           21.025093

@<TRIPOS>MOLECULE
ZINC000373864439
 48 49 1 0 0
SMALL
USER_CHARGES


@<TRIPOS>ATOM
      1 C1          3.7568    2.2404   47.4560 C.3     1  ZINC000373864439   -0.1500
      2 C2          2.2525    1.9606   47.4546 C.3     1  ZINC000373864439   -0.6300
      3 S3          1.6049    2.1268   49.1409 S.o2    1  ZINC000373864439    2.6100
      4 O4          2.1568    1.1278   49.9876 O.2     1  ZINC000373864439   -0.9500
      5 O5          1.5848    3.4918   49.5351 O.2     1  ZINC000373864439   -0.9600
      6 N6          0.0061    1.7153   49.0119 N.am    1  ZINC000373864439   -1.1200
      7 C7         -0.8532    1.7345   50.1983 C.3     1  ZINC000373864439    0.1100
      8 C8         -1.9942    2.7313   49.9855 C.3     1  ZINC000373864439    0.0500
      9 N9         -3.2393    2.1741   50.5307 N.3     1  ZINC000373864439   -0.5300
     10 C10        -3.9224    1.3386   49.5348 C.3     1  ZINC000373864439    0.0400
     11 C11        -5.1332    0.6605   50.1799 C.3     1  ZINC000373864439   -0.1300
     12 C12        -6.0869    1.7320   50.7153 C.3     1  ZINC000373864439    0.1800
     13 F13        -6.5536    2.5149   49.6539 F       1  ZINC000373864439   -0.2100
     14 C14        -7.2529    1.0700   51.4035 C.ar    1  ZINC000373864439   -0.1500
     15 C15        -7.2892   -0.3045   51.5335 C.ar    1  ZINC000373864439   -0.0700
     16 C16        -8.3591   -0.9126   52.1645 C.ar    1  ZINC000373864439   -0.1600
     17 C17        -9.3944   -0.1467   52.6669 C.ar    1  ZINC000373864439   -0.0700
     18 C18        -9.3627    1.2288   52.5398 C.ar    1  ZINC000373864439   -0.2100
     19 C19        -8.2881    1.8414   51.9121 C.ar    1  ZINC000373864439    0.1400
     20 O20        -8.2544    3.1941   51.7857 O.3     1  ZINC000373864439   -0.3100
     21 C21        -9.5087    3.8638   51.6437 C.3     1  ZINC000373864439    0.0200
     22 C22        -5.3376    2.6182   51.7141 C.3     1  ZINC000373864439   -0.1300
     23 C23        -4.1209    3.2396   51.0244 C.3     1  ZINC000373864439    0.0600
     24 H24         4.2584    1.5269   48.1098 H       1  ZINC000373864439    0.0700
     25 H25         4.1458    2.1406   46.4427 H       1  ZINC000373864439    0.0800
     26 H26         3.9376    3.2530   47.8166 H       1  ZINC000373864439    0.0700
     27 H27         1.7508    2.6742   46.8009 H       1  ZINC000373864439    0.1300
     28 H28         2.0716    0.9480   47.0940 H       1  ZINC000373864439    0.1300
     29 H29        -0.3615    1.4615   48.1509 H       1  ZINC000373864439    0.4200
     30 H30        -1.2661    0.7394   50.3640 H       1  ZINC000373864439    0.0700
     31 H31        -0.2667    2.0338   51.0670 H       1  ZINC000373864439    0.0900
     32 H32        -1.7603    3.6657   50.4957 H       1  ZINC000373864439    0.0900
     33 H33        -2.1172    2.9205   48.9190 H       1  ZINC000373864439    0.0400
     34 H34        -4.2548    1.9617   48.7045 H       1  ZINC000373864439    0.0400
     35 H35        -3.2344    0.5782   49.1652 H       1  ZINC000373864439    0.0900
     36 H36        -5.6489    0.0528   49.4365 H       1  ZINC000373864439    0.0800
     37 H37        -4.8001    0.0264   51.0016 H       1  ZINC000373864439    0.1000
     38 H38        -6.4816   -0.9051   51.1418 H       1  ZINC000373864439    0.1300
     39 H39        -8.3859   -1.9876   52.2645 H       1  ZINC000373864439    0.1300
     40 H40       -10.2290   -0.6239   53.1590 H       1  ZINC000373864439    0.1300
     41 H41       -10.1719    1.8267   52.9323 H       1  ZINC000373864439    0.1300
     42 H42        -9.3396    4.9367   51.5524 H       1  ZINC000373864439    0.1000
     43 H43       -10.0164    3.4988   50.7507 H       1  ZINC000373864439    0.0600
     44 H44       -10.1271    3.6667   52.5193 H       1  ZINC000373864439    0.0600
     45 H45        -5.9995    3.4093   52.0666 H       1  ZINC000373864439    0.0800
     46 H46        -5.0078    2.0149   52.5598 H       1  ZINC000373864439    0.1000
     47 H47        -3.5771    3.8600   51.7368 H       1  ZINC000373864439    0.0800
     48 H48        -4.4524    3.8539   50.1872 H       1  ZINC000373864439    0.0400
@<TRIPOS>BOND
     1     1     2    1
     2     1    24    1
     3     1    25    1
     4     1    26    1
     5     2     3    1
     6     2    27    1
     7     2    28    1
     8     3     4    2
     9     3     5    2
    10     3     6   am
    11     6     7    1
    12     6    29    1
    13     7     8    1
    14     7    30    1
    15     7    31    1
    16     8     9    1
    17     8    32    1
    18     8    33    1
    19     9    23    1
    20     9    10    1
    21    10    11    1
    22    10    34    1
    23    10    35    1
    24    11    12    1
    25    11    36    1
    26    11    37    1
    27    12    13    1
    28    12    14    1
    29    12    22    1
    30    14    19   ar
    31    14    15   ar
    32    15    16   ar
    33    15    38    1
    34    16    17   ar
    35    16    39    1
    36    17    18   ar
    37    17    40    1
    38    18    19   ar
    39    18    41    1
    40    19    20    1
    41    20    21    1
    42    21    42    1
    43    21    43    1
    44    21    44    1
    45    22    23    1
    46    22    45    1
    47    22    46    1
    48    23    47    1
    49    23    48    1
@<TRIPOS>SUBSTRUCTURE
     1 ZINC000373864439        1 TEMP              0 ****  ****    0 ROOT


##########                                Name:    ZINC000185180600
##########                DOCK_Rotatable_Bonds:                   7
##########                         Heavy_Atoms:                  26
##########                    Molecular_Weight:             395.953
##########                DOCK_Rotatable_Bonds:                   7
##########                       Formal_Charge:          0.00999977
##########                     HBond_Acceptors:                   7
##########                        HBond_Donors:                   0
##########                         Heavy_Atoms:                  26
##########                          Grid_Score:          -35.537937
##########                     Grid_vdw_energy:          -31.735605
##########                      Grid_es_energy:           -3.802331
##########           Internal_energy_repulsive:           36.224178

@<TRIPOS>MOLECULE
ZINC000185180600
 52 53 1 0 0
SMALL
USER_CHARGES


@<TRIPOS>ATOM
      1 C1          0.1516    3.5124   51.2662 C.3     1  ZINC000185180600   -0.1500
      2 C2         -0.8822    2.7885   50.4013 C.3     1  ZINC000185180600   -0.0900
      3 C3         -0.5765    1.2894   50.3884 C.3     1  ZINC000185180600   -0.1500
      4 C4         -2.2806    3.0188   50.9777 C.3     1  ZINC000185180600   -0.1300
      5 C5         -3.3057    2.2318   50.1589 C.3     1  ZINC000185180600    0.1300
      6 H6         -3.1000    1.1651   50.2478 H       1  ZINC000185180600    0.1100
      7 C7         -3.2131    2.6484   48.6896 C.3     1  ZINC000185180600   -0.1600
      8 N8         -4.6525    2.5130   50.6623 N.am    1  ZINC000185180600   -0.6000
      9 C9         -4.8868    3.6813   51.5146 C.3     1  ZINC000185180600    0.0700
     10 C10        -5.6759    1.6970   50.3413 C.2     1  ZINC000185180600    0.5400
     11 O11        -5.4817    0.7289   49.6369 O.2     1  ZINC000185180600   -0.5300
     12 C12        -7.0617    1.9872   50.8576 C.3     1  ZINC000185180600   -0.5000
     13 S13        -7.3593    1.0237   52.3655 S.o     1  ZINC000185180600    1.3200
     14 O14        -7.3264   -0.3628   52.0559 O.2     1  ZINC000185180600   -0.8000
     15 C15        -9.0477    1.5001   52.8274 C.3     1  ZINC000185180600   -0.3900
     16 C16        -9.4492    0.7714   54.0838 C.2     1  ZINC000185180600    0.1000
     17 N17       -10.3838   -0.1401   54.1765 N.2     1  ZINC000185180600   -0.2800
     18 N18       -10.4469   -0.5691   55.5087 N.pl3   1  ZINC000185180600   -0.3200
     19 C19       -11.3195   -1.5385   56.0230 C.ar    1  ZINC000185180600    0.1700
     20 C20       -11.3416   -1.8009   57.3861 C.ar    1  ZINC000185180600   -0.1300
     21 C21       -12.2019   -2.7564   57.8905 C.ar    1  ZINC000185180600   -0.0800
     22 C22       -13.0411   -3.4524   57.0381 C.ar    1  ZINC000185180600   -0.0500
     23 Cl23      -14.1215   -4.6528   57.6750 Cl      1  ZINC000185180600   -0.0600
     24 C24       -13.0210   -3.1925   55.6790 C.ar    1  ZINC000185180600   -0.0800
     25 C25       -12.1667   -2.2337   55.1707 C.ar    1  ZINC000185180600   -0.1100
     26 C26        -9.5173    0.1176   56.2105 C.2     1  ZINC000185180600    0.0600
     27 C27        -8.8829    0.9484   55.3509 C.2     1  ZINC000185180600   -0.2500
     28 H28         1.1479    3.3482   50.8556 H       1  ZINC000185180600    0.0500
     29 H29        -0.0661    4.5803   51.2754 H       1  ZINC000185180600    0.0600
     30 H30         0.1096    3.1242   52.2839 H       1  ZINC000185180600    0.0500
     31 H31        -0.8402    3.1766   49.3836 H       1  ZINC000185180600    0.0700
     32 H32         0.3841    1.1186   49.9024 H       1  ZINC000185180600    0.0500
     33 H33        -0.5368    0.9178   51.4124 H       1  ZINC000185180600    0.0500
     34 H34        -1.3590    0.7637   49.8412 H       1  ZINC000185180600    0.0500
     35 H35        -2.3066    2.6813   52.0138 H       1  ZINC000185180600    0.0700
     36 H36        -2.5205    4.0813   50.9356 H       1  ZINC000185180600    0.0800
     37 H37        -3.4189    3.7151   48.6008 H       1  ZINC000185180600    0.0600
     38 H38        -2.2111    2.4391   48.3152 H       1  ZINC000185180600    0.0700
     39 H39        -3.9435    2.0876   48.1062 H       1  ZINC000185180600    0.0600
     40 H40        -5.1376    4.5404   50.8924 H       1  ZINC000185180600    0.0600
     41 H41        -5.7112    3.4739   52.1968 H       1  ZINC000185180600    0.0700
     42 H42        -3.9861    3.8989   52.0885 H       1  ZINC000185180600    0.0800
     43 H43        -7.1504    3.0502   51.0822 H       1  ZINC000185180600    0.1500
     44 H44        -7.7963    1.7132   50.1004 H       1  ZINC000185180600    0.1200
     45 H45        -9.0868    2.5752   53.0027 H       1  ZINC000185180600    0.1400
     46 H46        -9.7326    1.2382   52.0209 H       1  ZINC000185180600    0.1000
     47 H47       -10.6863   -1.2585   58.0516 H       1  ZINC000185180600    0.1400
     48 H48       -12.2194   -2.9609   58.9508 H       1  ZINC000185180600    0.1500
     49 H49       -13.6765   -3.7372   55.0157 H       1  ZINC000185180600    0.1400
     50 H50       -12.1513   -2.0313   54.1100 H       1  ZINC000185180600    0.1500
     51 H51        -9.3142    0.0176   57.2666 H       1  ZINC000185180600    0.1800
     52 H52        -8.0856    1.6327   55.6006 H       1  ZINC000185180600    0.1700
@<TRIPOS>BOND
     1     1     2    1
     2     1    28    1
     3     1    29    1
     4     1    30    1
     5     2     3    1
     6     2     4    1
     7     2    31    1
     8     3    32    1
     9     3    33    1
    10     3    34    1
    11     4     5    1
    12     4    35    1
    13     4    36    1
    14     5     6    1
    15     5     7    1
    16     5     8    1
    17     7    37    1
    18     7    38    1
    19     7    39    1
    20     8     9    1
    21     8    10   am
    22     9    40    1
    23     9    41    1
    24     9    42    1
    25    10    11    2
    26    10    12    1
    27    12    13    1
    28    12    43    1
    29    12    44    1
    30    13    14    2
    31    13    15    1
    32    15    16    1
    33    15    45    1
    34    15    46    1
    35    16    27    1
    36    16    17    2
    37    17    18    1
    38    18    19    1
    39    18    26    1
    40    19    25   ar
    41    19    20   ar
    42    20    21   ar
    43    20    47    1
    44    21    22   ar
    45    21    48    1
    46    22    23    1
    47    22    24   ar
    48    24    25   ar
    49    24    49    1
    50    25    50    1
    51    26    27    2
    52    26    51    1
    53    27    52    1
@<TRIPOS>SUBSTRUCTURE
     1 ZINC000185180600        1 TEMP              0 ****  ****    0 ROOT


##########                                Name:    ZINC000540473851
##########                DOCK_Rotatable_Bonds:                   5
##########                         Heavy_Atoms:                  29
##########                    Molecular_Weight:             411.503
##########                DOCK_Rotatable_Bonds:                   5
##########                       Formal_Charge:           0.0200001
##########                     HBond_Acceptors:                   8
##########                        HBond_Donors:                   0
##########                         Heavy_Atoms:                  29
##########                          Grid_Score:          -35.535324
##########                     Grid_vdw_energy:          -33.655128
##########                      Grid_es_energy:           -1.880195
##########           Internal_energy_repulsive:           35.577785

@<TRIPOS>MOLECULE
ZINC000540473851
 51 54 1 0 0
SMALL
USER_CHARGES


@<TRIPOS>ATOM
      1 C1        -10.6931   -1.6936   53.0179 C.3     1  ZINC000540473851   -0.0800
      2 C2         -9.8411   -0.4641   52.8347 C.2     1  ZINC000540473851    0.1500
      3 C3        -10.1620    0.7528   53.3750 C.2     1  ZINC000540473851   -0.3100
      4 C4        -11.3442    1.0526   54.1921 C.2     1  ZINC000540473851    0.6000
      5 O5        -12.4059    1.3076   53.6553 O.2     1  ZINC000540473851   -0.5100
      6 N6        -11.2534    1.0453   55.5367 N.am    1  ZINC000540473851   -0.6100
      7 C7        -12.4267    1.3370   56.3742 C.3     1  ZINC000540473851    0.1000
      8 C8        -12.5739    0.2191   57.4120 C.3     1  ZINC000540473851    0.0400
      9 N9        -11.3100    0.0665   58.1451 N.3     1  ZINC000540473851   -0.5300
     10 C10       -11.4602   -0.8746   59.2630 C.3     1  ZINC000540473851    0.1200
     11 H11       -11.9216   -0.3640   60.1083 H       1  ZINC000540473851    0.0500
     12 C12       -10.0840   -1.4013   59.6747 C.3     1  ZINC000540473851   -0.1400
     13 C13       -12.3319   -2.0273   58.8357 C.ar    1  ZINC000540473851   -0.0500
     14 C14       -13.6739   -2.0382   59.1664 C.ar    1  ZINC000540473851   -0.1000
     15 C15       -14.4749   -3.0951   58.7750 C.ar    1  ZINC000540473851   -0.0900
     16 C16       -13.9345   -4.1418   58.0528 C.ar    1  ZINC000540473851   -0.1500
     17 C17       -12.5901   -4.1317   57.7204 C.ar    1  ZINC000540473851    0.1000
     18 F18       -12.0607   -5.1544   57.0143 F       1  ZINC000540473851   -0.1400
     19 C19       -11.7902   -3.0704   58.1082 C.ar    1  ZINC000540473851   -0.1500
     20 C20       -10.2217   -0.3488   57.2501 C.3     1  ZINC000540473851    0.0400
     21 C21        -9.9796    0.7397   56.2056 C.3     1  ZINC000540473851    0.1200
     22 S22        -8.9011    1.8939   52.9137 S.3     1  ZINC000540473851    0.2800
     23 C23        -8.0812    0.6608   52.0598 C.2     1  ZINC000540473851    0.0800
     24 C24        -6.8105    0.8458   51.3248 C.ar    1  ZINC000540473851    0.3800
     25 N25        -6.3035    2.0661   51.2044 N.ar    1  ZINC000540473851   -0.5100
     26 C26        -5.1706    2.2655   50.5544 C.ar    1  ZINC000540473851    0.1600
     27 C27        -4.5111    1.1805   49.9949 C.ar    1  ZINC000540473851   -0.2100
     28 C28        -5.0688   -0.0817   50.1395 C.ar    1  ZINC000540473851    0.1500
     29 N29        -6.2020   -0.2132   50.8064 N.ar    1  ZINC000540473851   -0.4700
     30 N30        -8.7285   -0.4658   52.1517 N.2     1  ZINC000540473851   -0.4300
     31 H31       -10.3752   -2.2258   53.9145 H       1  ZINC000540473851    0.0900
     32 H32       -11.7377   -1.3997   53.1212 H       1  ZINC000540473851    0.0800
     33 H33       -10.5829   -2.3446   52.1506 H       1  ZINC000540473851    0.0800
     34 H34       -12.2864    2.2915   56.8815 H       1  ZINC000540473851    0.0900
     35 H35       -13.3201    1.3780   55.7512 H       1  ZINC000540473851    0.0900
     36 H36       -13.3709    0.4740   58.1106 H       1  ZINC000540473851    0.1000
     37 H37       -12.8170   -0.7159   56.9075 H       1  ZINC000540473851    0.0400
     38 H38        -9.6225   -1.9118   58.8294 H       1  ZINC000540473851    0.0700
     39 H39        -9.4535   -0.5675   59.9838 H       1  ZINC000540473851    0.0600
     40 H40       -10.1953   -2.0995   60.5042 H       1  ZINC000540473851    0.0600
     41 H41       -14.0971   -1.2207   59.7312 H       1  ZINC000540473851    0.1400
     42 H42       -15.5233   -3.1027   59.0343 H       1  ZINC000540473851    0.1300
     43 H43       -14.5602   -4.9675   57.7478 H       1  ZINC000540473851    0.1300
     44 H44       -10.7418   -3.0612   57.8494 H       1  ZINC000540473851    0.1300
     45 H45        -9.3129   -0.5058   57.8310 H       1  ZINC000540473851    0.1000
     46 H46       -10.4976   -1.2760   56.7477 H       1  ZINC000540473851    0.0400
     47 H47        -9.2540    0.3884   55.4720 H       1  ZINC000540473851    0.1000
     48 H48        -9.6045    1.6390   56.6942 H       1  ZINC000540473851    0.0800
     49 H49        -4.7630    3.2611   50.4593 H       1  ZINC000540473851    0.1800
     50 H50        -3.5837    1.3156   49.4581 H       1  ZINC000540473851    0.1600
     51 H51        -4.5804   -0.9468   49.7160 H       1  ZINC000540473851    0.1800
@<TRIPOS>BOND
     1     1     2    1
     2     1    31    1
     3     1    32    1
     4     1    33    1
     5     2    30    1
     6     2     3    2
     7     3     4    1
     8     3    22    1
     9     4     5    2
    10     4     6   am
    11     6    21    1
    12     6     7    1
    13     7     8    1
    14     7    34    1
    15     7    35    1
    16     8     9    1
    17     8    36    1
    18     8    37    1
    19     9    10    1
    20     9    20    1
    21    10    11    1
    22    10    12    1
    23    10    13    1
    24    12    38    1
    25    12    39    1
    26    12    40    1
    27    13    19   ar
    28    13    14   ar
    29    14    15   ar
    30    14    41    1
    31    15    16   ar
    32    15    42    1
    33    16    17   ar
    34    16    43    1
    35    17    18    1
    36    17    19   ar
    37    19    44    1
    38    20    21    1
    39    20    45    1
    40    20    46    1
    41    21    47    1
    42    21    48    1
    43    22    23    1
    44    23    24    1
    45    23    30    2
    46    24    29   ar
    47    24    25   ar
    48    25    26   ar
    49    26    27   ar
    50    26    49    1
    51    27    28   ar
    52    27    50    1
    53    28    29   ar
    54    28    51    1
@<TRIPOS>SUBSTRUCTURE
     1 ZINC000540473851        1 TEMP              0 ****  ****    0 ROOT


##########                                Name:    ZINC000002634904
##########                DOCK_Rotatable_Bonds:                   7
##########                         Heavy_Atoms:                  31
##########                    Molecular_Weight:             423.498
##########                DOCK_Rotatable_Bonds:                   7
##########                       Formal_Charge:        -7.45058e-08
##########                     HBond_Acceptors:                   7
##########                        HBond_Donors:                   1
##########                         Heavy_Atoms:                  31
##########                          Grid_Score:          -35.532200
##########                     Grid_vdw_energy:          -34.473244
##########                      Grid_es_energy:           -1.058956
##########           Internal_energy_repulsive:            6.200105

@<TRIPOS>MOLECULE
ZINC000002634904
 48 51 1 0 0
SMALL
USER_CHARGES


@<TRIPOS>ATOM
      1 N1         -5.5385    4.5791   53.7648 N.1     1  ZINC000002634904   -0.4100
      2 C2         -6.3998    3.8676   53.5592 C.1     1  ZINC000002634904    0.2500
      3 C3         -7.4856    2.9706   53.2999 C.ar    1  ZINC000002634904   -0.0400
      4 C4         -7.6821    1.8538   54.1171 C.ar    1  ZINC000002634904   -0.0500
      5 C5         -8.7272    0.9934   53.8648 C.ar    1  ZINC000002634904   -0.1400
      6 C6         -9.5869    1.2348   52.7982 C.ar    1  ZINC000002634904    0.1700
      7 N7        -10.6450    0.3607   52.5456 N.am    1  ZINC000002634904   -0.6700
      8 C8        -10.3956   -0.9244   52.2253 C.2     1  ZINC000002634904    0.5400
      9 O9         -9.2517   -1.3213   52.1563 O.2     1  ZINC000002634904   -0.5000
     10 C10       -11.5383   -1.8683   51.9525 C.3     1  ZINC000002634904   -0.1700
     11 S11       -11.2014   -3.4655   52.7346 S.3     1  ZINC000002634904    0.1300
     12 C12       -11.9565   -3.2027   54.3047 C.ar    1  ZINC000002634904    0.2100
     13 N13       -13.2810   -3.2203   54.4042 N.ar    1  ZINC000002634904   -0.2900
     14 N14       -13.8757   -3.0334   55.5300 N.ar    1  ZINC000002634904   -0.1600
     15 C15       -13.1715   -2.8152   56.6356 C.ar    1  ZINC000002634904    0.0600
     16 C16       -13.8545   -2.6002   57.9327 C.ar    1  ZINC000002634904   -0.0500
     17 C17       -14.5235   -3.6538   58.5547 C.ar    1  ZINC000002634904   -0.0800
     18 C18       -15.1577   -3.4474   59.7627 C.ar    1  ZINC000002634904   -0.1200
     19 C19       -15.1311   -2.1982   60.3565 C.ar    1  ZINC000002634904   -0.1000
     20 C20       -14.4691   -1.1492   59.7442 C.ar    1  ZINC000002634904   -0.1200
     21 C21       -13.8259   -1.3448   58.5392 C.ar    1  ZINC000002634904   -0.0800
     22 C22       -11.7646   -2.7920   56.5547 C.ar    1  ZINC000002634904    0.2300
     23 C23       -10.9404   -2.5521   57.7623 C.ar    1  ZINC000002634904   -0.0700
     24 C24       -10.4597   -3.6286   58.5069 C.ar    1  ZINC000002634904   -0.0700
     25 C25        -9.6921   -3.3989   59.6304 C.ar    1  ZINC000002634904   -0.1200
     26 C26        -9.3992   -2.1038   60.0183 C.ar    1  ZINC000002634904   -0.0900
     27 C27        -9.8736   -1.0317   59.2840 C.ar    1  ZINC000002634904   -0.1200
     28 C28       -10.6373   -1.2489   58.1554 C.ar    1  ZINC000002634904   -0.0700
     29 N29       -11.1930   -2.9957   55.3701 N.ar    1  ZINC000002634904   -0.4400
     30 C30        -9.3947    2.3454   51.9830 C.ar    1  ZINC000002634904   -0.1200
     31 C31        -8.3550    3.2130   52.2326 C.ar    1  ZINC000002634904   -0.0500
     32 H32        -7.0147    1.6656   54.9451 H       1  ZINC000002634904    0.1400
     33 H33        -8.8793    0.1301   54.4955 H       1  ZINC000002634904    0.1400
     34 H34       -11.5599    0.6781   52.6008 H       1  ZINC000002634904    0.4200
     35 H35       -12.4593   -1.4513   52.3600 H       1  ZINC000002634904    0.1300
     36 H36       -11.6468   -2.0063   50.8768 H       1  ZINC000002634904    0.1300
     37 H37       -14.5455   -4.6293   58.0917 H       1  ZINC000002634904    0.1300
     38 H38       -15.6761   -4.2626   60.2453 H       1  ZINC000002634904    0.1300
     39 H39       -15.6296   -2.0413   61.3016 H       1  ZINC000002634904    0.1300
     40 H40       -14.4518   -0.1761   60.2126 H       1  ZINC000002634904    0.1300
     41 H41       -13.3091   -0.5251   58.0623 H       1  ZINC000002634904    0.1200
     42 H42       -10.6881   -4.6402   58.2052 H       1  ZINC000002634904    0.1300
     43 H43        -9.3196   -4.2319   60.2081 H       1  ZINC000002634904    0.1300
     44 H44        -8.7980   -1.9290   60.8984 H       1  ZINC000002634904    0.1300
     45 H45        -9.6419   -0.0228   59.5919 H       1  ZINC000002634904    0.1300
     46 H46       -11.0071   -0.4111   57.5828 H       1  ZINC000002634904    0.1300
     47 H47       -10.0644    2.5298   51.1561 H       1  ZINC000002634904    0.1500
     48 H48        -8.2066    4.0754   51.5996 H       1  ZINC000002634904    0.1400
@<TRIPOS>BOND
     1     1     2    3
     2     2     3    1
     3     3    31   ar
     4     3     4   ar
     5     4     5   ar
     6     4    32    1
     7     5     6   ar
     8     5    33    1
     9     6     7    1
    10     6    30   ar
    11     7     8   am
    12     7    34    1
    13     8     9    2
    14     8    10    1
    15    10    11    1
    16    10    35    1
    17    10    36    1
    18    11    12    1
    19    12    29   ar
    20    12    13   ar
    21    13    14   ar
    22    14    15   ar
    23    15    16    1
    24    15    22   ar
    25    16    21   ar
    26    16    17   ar
    27    17    18   ar
    28    17    37    1
    29    18    19   ar
    30    18    38    1
    31    19    20   ar
    32    19    39    1
    33    20    21   ar
    34    20    40    1
    35    21    41    1
    36    22    23    1
    37    22    29   ar
    38    23    28   ar
    39    23    24   ar
    40    24    25   ar
    41    24    42    1
    42    25    26   ar
    43    25    43    1
    44    26    27   ar
    45    26    44    1
    46    27    28   ar
    47    27    45    1
    48    28    46    1
    49    30    31   ar
    50    30    47    1
    51    31    48    1
@<TRIPOS>SUBSTRUCTURE
     1 ZINC000002634904        1 TEMP              0 ****  ****    0 ROOT


##########                                Name:    ZINC000629379364
##########                DOCK_Rotatable_Bonds:                   5
##########                         Heavy_Atoms:                  23
##########                    Molecular_Weight:             386.261
##########                DOCK_Rotatable_Bonds:                   5
##########                       Formal_Charge:               -0.02
##########                     HBond_Acceptors:                   5
##########                        HBond_Donors:                   1
##########                         Heavy_Atoms:                  23
##########                          Grid_Score:          -35.507210
##########                     Grid_vdw_energy:          -35.619022
##########                      Grid_es_energy:            0.111812
##########           Internal_energy_repulsive:           16.821348

@<TRIPOS>MOLECULE
ZINC000629379364
 44 46 1 0 0
SMALL
USER_CHARGES


@<TRIPOS>ATOM
      1 O1         -2.9851    3.7159   54.1595 O.co2   1  ZINC000629379364   -0.6800
      2 C2         -2.9850    4.5628   53.2825 C.2     1  ZINC000629379364    0.5000
      3 O3         -2.3915    5.6145   53.4507 O.co2   1  ZINC000629379364   -0.6900
      4 C4         -3.7130    4.3072   51.9881 C.3     1  ZINC000629379364   -0.1600
      5 H5         -3.5602    5.1421   51.3041 H       1  ZINC000629379364    0.0800
      6 C6         -5.2159    4.1176   52.2587 C.3     1  ZINC000629379364   -0.1300
      7 C7         -5.9587    3.7149   50.9883 C.3     1  ZINC000629379364   -0.0100
      8 N8         -5.3650    2.5178   50.3620 N.4     1  ZINC000629379364   -0.3700
      9 H9         -5.8767    2.2788   49.5259 H       1  ZINC000629379364    0.4200
     10 C10        -5.3978    1.3925   51.3057 C.3     1  ZINC000629379364   -0.0200
     11 C11        -6.4079    0.3503   50.8217 C.3     1  ZINC000629379364    0.0300
     12 O12        -6.8593   -0.4273   51.9324 O.3     1  ZINC000629379364   -0.3200
     13 C13        -8.1606   -0.2847   52.2971 C.ar    1  ZINC000629379364    0.1600
     14 C14        -8.6528    0.9659   52.6392 C.ar    1  ZINC000629379364   -0.2300
     15 C15        -9.9783    1.1088   53.0102 C.ar    1  ZINC000629379364    0.1500
     16 F16       -10.4588    2.3267   53.3437 F       1  ZINC000629379364   -0.1200
     17 C17       -10.8123    0.0039   53.0394 C.ar    1  ZINC000629379364   -0.1600
     18 C18       -10.3220   -1.2440   52.6986 C.ar    1  ZINC000629379364   -0.0300
     19 Br19      -11.4637   -2.7510   52.7394 Br      1  ZINC000629379364   -0.0100
     20 C20        -9.0000   -1.3892   52.3220 C.ar    1  ZINC000629379364   -0.1300
     21 C21        -3.9883    2.8405   50.0234 C.3     1  ZINC000629379364   -0.0100
     22 H22        -3.9530    3.7630   49.4439 H       1  ZINC000629379364    0.1400
     23 C23        -3.1881    1.7437   49.3133 C.3     1  ZINC000629379364   -0.1300
     24 C24        -1.7159    2.1334   49.6170 C.3     1  ZINC000629379364   -0.1200
     25 C25        -1.7475    2.9855   50.9097 C.3     1  ZINC000629379364   -0.1100
     26 C26        -3.2118    3.0202   51.3559 C.3     1  ZINC000629379364   -0.0700
     27 H27        -3.4242    2.1672   52.0005 H       1  ZINC000629379364    0.1000
     28 H28        -5.3480    3.3403   53.0113 H       1  ZINC000629379364    0.0800
     29 H29        -5.6320    5.0522   52.6347 H       1  ZINC000629379364    0.1100
     30 H30        -6.9995    3.5065   51.2364 H       1  ZINC000629379364    0.1200
     31 H31        -5.9230    4.5415   50.2788 H       1  ZINC000629379364    0.1300
     32 H32        -4.4083    0.9393   51.3652 H       1  ZINC000629379364    0.1400
     33 H33        -5.6921    1.7534   52.2913 H       1  ZINC000629379364    0.1700
     34 H34        -7.2578    0.8543   50.3616 H       1  ZINC000629379364    0.1100
     35 H35        -5.9333   -0.3032   50.0897 H       1  ZINC000629379364    0.0900
     36 H36        -8.0019    1.8275   52.6164 H       1  ZINC000629379364    0.1500
     37 H37       -11.8468    0.1165   53.3287 H       1  ZINC000629379364    0.1500
     38 H38        -8.6182   -2.3639   52.0559 H       1  ZINC000629379364    0.1500
     39 H39        -3.4215    0.7644   49.7311 H       1  ZINC000629379364    0.0800
     40 H40        -3.3779    1.7614   48.2401 H       1  ZINC000629379364    0.0900
     41 H41        -1.1164    1.2369   49.7745 H       1  ZINC000629379364    0.0800
     42 H42        -1.3063    2.7182   48.7934 H       1  ZINC000629379364    0.0800
     43 H43        -1.1195    2.5316   51.6763 H       1  ZINC000629379364    0.0900
     44 H44        -1.4136    4.0017   50.7002 H       1  ZINC000629379364    0.0800
@<TRIPOS>BOND
     1     1     2   ar
     2     2     3   ar
     3     2     4    1
     4     4     5    1
     5     4    26    1
     6     4     6    1
     7     6     7    1
     8     6    28    1
     9     6    29    1
    10     7     8    1
    11     7    30    1
    12     7    31    1
    13     8     9    1
    14     8    10    1
    15     8    21    1
    16    10    11    1
    17    10    32    1
    18    10    33    1
    19    11    12    1
    20    11    34    1
    21    11    35    1
    22    12    13    1
    23    13    20   ar
    24    13    14   ar
    25    14    15   ar
    26    14    36    1
    27    15    16    1
    28    15    17   ar
    29    17    18   ar
    30    17    37    1
    31    18    19    1
    32    18    20   ar
    33    20    38    1
    34    21    22    1
    35    21    26    1
    36    21    23    1
    37    23    24    1
    38    23    39    1
    39    23    40    1
    40    24    25    1
    41    24    41    1
    42    24    42    1
    43    25    26    1
    44    25    43    1
    45    25    44    1
    46    26    27    1
@<TRIPOS>SUBSTRUCTURE
     1 ZINC000629379364        1 TEMP              0 ****  ****    0 ROOT


##########                                Name:    ZINC001570985666
##########                DOCK_Rotatable_Bonds:                   7
##########                         Heavy_Atoms:                  26
##########                    Molecular_Weight:             357.415
##########                DOCK_Rotatable_Bonds:                   7
##########                       Formal_Charge:          -0.0100001
##########                     HBond_Acceptors:                   9
##########                        HBond_Donors:                   3
##########                         Heavy_Atoms:                  26
##########                          Grid_Score:          -35.500904
##########                     Grid_vdw_energy:          -34.022305
##########                      Grid_es_energy:           -1.478599
##########           Internal_energy_repulsive:           13.976342

@<TRIPOS>MOLECULE
ZINC001570985666
 49 52 1 0 0
SMALL
USER_CHARGES


@<TRIPOS>ATOM
      1 C1         -2.3731    1.4069   49.3384 C.3     1  ZINC001570985666   -0.1600
      2 C2         -2.2311    2.0761   50.7070 C.3     1  ZINC001570985666    0.1300
      3 H3         -2.3238    1.3297   51.4958 H       1  ZINC001570985666    0.0800
      4 C4         -3.3185    3.1579   50.8775 C.3     1  ZINC001570985666    0.1400
      5 H5         -3.6737    3.5040   49.9069 H       1  ZINC001570985666    0.1100
      6 N6         -4.4315    2.6512   51.6841 N.am    1  ZINC001570985666   -0.7200
      7 C7         -5.4651    2.0246   51.0880 C.2     1  ZINC001570985666    0.6000
      8 O8         -5.4745    1.8809   49.8804 O.2     1  ZINC001570985666   -0.5300
      9 C9         -6.5836    1.5135   51.8993 C.2     1  ZINC001570985666   -0.2300
     10 C10        -7.0695    2.0638   53.0656 C.2     1  ZINC001570985666    0.0700
     11 N11        -8.0940    1.3016   53.4973 N.pl3   1  ZINC001570985666   -0.5200
     12 C12        -8.2820    0.2588   52.6241 C.2     1  ZINC001570985666    0.0600
     13 C13        -9.3101   -0.7987   52.7484 C.2     1  ZINC001570985666    0.2500
     14 N14       -10.2231   -0.9035   53.6954 N.2     1  ZINC001570985666   -0.3100
     15 N15       -10.9258   -1.9556   53.4504 N.pl3   1  ZINC001570985666   -0.2200
     16 N16       -10.4886   -2.5208   52.3798 N.2     1  ZINC001570985666   -0.0400
     17 N17        -9.4993   -1.8348   51.9171 N.2     1  ZINC001570985666   -0.2600
     18 C18        -7.3698    0.3644   51.6251 C.2     1  ZINC001570985666   -0.0600
     19 C19        -2.5665    4.2918   51.6232 C.3     1  ZINC001570985666   -0.1500
     20 C20        -1.1534    4.1927   50.9962 C.3     1  ZINC001570985666    0.1000
     21 N21        -0.9258    2.7457   50.8031 N.am    1  ZINC001570985666   -0.6200
     22 C22         0.2774    2.1432   50.7264 C.2     1  ZINC001570985666    0.5300
     23 O23         0.3454    0.9432   50.5648 O.2     1  ZINC001570985666   -0.5300
     24 C24         1.5381    2.9608   50.8413 C.3     1  ZINC001570985666   -0.1300
     25 C25         2.2660    2.5962   52.1368 C.3     1  ZINC001570985666   -0.1000
     26 C26         3.3589    3.6028   52.5335 C.3     1  ZINC001570985666   -0.1300
     27 C27         2.8849    3.4253   53.9857 C.3     1  ZINC001570985666   -0.1400
     28 C28         1.5161    3.0291   53.4076 C.3     1  ZINC001570985666   -0.1400
     29 H29        -1.5989    0.6484   49.2228 H       1  ZINC001570985666    0.0700
     30 H30        -3.3545    0.9388   49.2629 H       1  ZINC001570985666    0.0700
     31 H31        -2.2670    2.1568   48.5545 H       1  ZINC001570985666    0.0600
     32 H32        -4.4247    2.7668   52.6472 H       1  ZINC001570985666    0.4000
     33 H33        -6.6937    2.9525   53.5508 H       1  ZINC001570985666    0.1800
     34 H34        -8.6158    1.4641   54.2985 H       1  ZINC001570985666    0.4300
     35 H35       -11.6681   -2.2722   53.9887 H       1  ZINC001570985666    0.4800
     36 H36        -7.2587   -0.3037   50.7838 H       1  ZINC001570985666    0.1600
     37 H37        -3.0185    5.2619   51.4166 H       1  ZINC001570985666    0.0900
     38 H38        -2.5326    4.0988   52.6955 H       1  ZINC001570985666    0.0800
     39 H39        -1.1258    4.7133   50.0391 H       1  ZINC001570985666    0.0800
     40 H40        -0.4074    4.6054   51.6752 H       1  ZINC001570985666    0.0800
     41 H41         2.1855    2.7520   49.9897 H       1  ZINC001570985666    0.0900
     42 H42         1.2839    4.0207   50.8534 H       1  ZINC001570985666    0.0900
     43 H43         2.5981    1.5582   52.1580 H       1  ZINC001570985666    0.1000
     44 H44         4.3715    3.2399   52.3573 H       1  ZINC001570985666    0.0700
     45 H45         3.1928    4.6054   52.1395 H       1  ZINC001570985666    0.0800
     46 H46         3.3875    2.6144   54.5130 H       1  ZINC001570985666    0.0800
     47 H47         2.8659    4.3543   54.5555 H       1  ZINC001570985666    0.0700
     48 H48         0.8462    3.8749   53.2526 H       1  ZINC001570985666    0.0800
     49 H49         1.0411    2.2032   53.9370 H       1  ZINC001570985666    0.0700
@<TRIPOS>BOND
     1     1     2    1
     2     1    29    1
     3     1    30    1
     4     1    31    1
     5     2     3    1
     6     2    21    1
     7     2     4    1
     8     4     5    1
     9     4     6    1
    10     4    19    1
    11     6     7   am
    12     6    32    1
    13     7     8    2
    14     7     9    1
    15     9    18    1
    16     9    10    2
    17    10    11    1
    18    10    33    1
    19    11    12    1
    20    11    34    1
    21    12    13    1
    22    12    18    2
    23    13    17    1
    24    13    14    2
    25    14    15    1
    26    15    16    1
    27    15    35    1
    28    16    17    2
    29    18    36    1
    30    19    20    1
    31    19    37    1
    32    19    38    1
    33    20    21    1
    34    20    39    1
    35    20    40    1
    36    21    22   am
    37    22    23    2
    38    22    24    1
    39    24    25    1
    40    24    41    1
    41    24    42    1
    42    25    28    1
    43    25    26    1
    44    25    43    1
    45    26    27    1
    46    26    44    1
    47    26    45    1
    48    27    28    1
    49    27    46    1
    50    27    47    1
    51    28    48    1
    52    28    49    1
@<TRIPOS>SUBSTRUCTURE
     1 ZINC001570985666        1 TEMP              0 ****  ****    0 ROOT


##########                                Name:    ZINC000509132103
##########                DOCK_Rotatable_Bonds:                   7
##########                         Heavy_Atoms:                  29
##########                    Molecular_Weight:              405.52
##########                DOCK_Rotatable_Bonds:                   7
##########                       Formal_Charge:          -0.0499998
##########                     HBond_Acceptors:                   6
##########                        HBond_Donors:                   0
##########                         Heavy_Atoms:                  29
##########                          Grid_Score:          -35.495964
##########                     Grid_vdw_energy:          -33.798355
##########                      Grid_es_energy:           -1.697608
##########           Internal_energy_repulsive:           16.347929

@<TRIPOS>MOLECULE
ZINC000509132103
 52 55 1 0 0
SMALL
USER_CHARGES


@<TRIPOS>ATOM
      1 C1        -13.2990   -1.0443   50.7058 C.3     1  ZINC000509132103    0.0300
      2 O2        -12.3011   -1.8118   51.3821 O.3     1  ZINC000509132103   -0.3000
      3 C3        -12.6758   -2.4375   52.5263 C.ar    1  ZINC000509132103    0.2700
      4 C4        -13.9830   -2.3206   52.9911 C.ar    1  ZINC000509132103   -0.1300
      5 C5        -14.3161   -2.9791   54.1653 C.ar    1  ZINC000509132103   -0.0700
      6 C6        -13.3274   -3.7130   54.8040 C.ar    1  ZINC000509132103    0.0500
      7 C7        -13.6403   -4.4467   56.0825 C.3     1  ZINC000509132103   -0.0500
      8 S8        -12.1090   -4.7107   57.0186 S.3     1  ZINC000509132103   -0.1500
      9 C9        -11.6167   -3.0266   57.4790 C.3     1  ZINC000509132103   -0.1300
     10 C10       -10.5627   -3.0877   58.5543 C.2     1  ZINC000509132103    0.5400
     11 O11       -10.0524   -4.1492   58.8438 O.2     1  ZINC000509132103   -0.5100
     12 N12       -10.1870   -1.9626   59.1943 N.am    1  ZINC000509132103   -0.6100
     13 C13        -9.1641   -1.9884   60.2454 C.3     1  ZINC000509132103    0.1500
     14 C14        -9.6149   -1.1477   61.4134 C.ar    1  ZINC000509132103   -0.1000
     15 C15        -8.8961   -1.2446   62.5967 C.ar    1  ZINC000509132103   -0.1100
     16 C16        -9.2539   -0.4926   63.6972 C.ar    1  ZINC000509132103   -0.1200
     17 C17       -10.3355    0.3643   63.6194 C.ar    1  ZINC000509132103   -0.1200
     18 C18       -11.0532    0.4585   62.4450 C.ar    1  ZINC000509132103   -0.1100
     19 C19       -10.6990   -0.3018   61.3374 C.ar    1  ZINC000509132103   -0.0600
     20 C20       -11.5447   -0.1668   60.0985 C.3     1  ZINC000509132103   -0.0200
     21 H21       -12.4537   -0.7560   60.2191 H       1  ZINC000509132103    0.1000
     22 C22       -11.9146    1.2814   59.9062 C.ar    1  ZINC000509132103   -0.0800
     23 C23       -10.9260    2.2264   59.7051 C.ar    1  ZINC000509132103   -0.1100
     24 C24       -11.2654    3.5548   59.5287 C.ar    1  ZINC000509132103   -0.1200
     25 C25       -12.5933    3.9381   59.5531 C.ar    1  ZINC000509132103   -0.1200
     26 C26       -13.5819    2.9928   59.7534 C.ar    1  ZINC000509132103   -0.1200
     27 C27       -13.2429    1.6638   59.9254 C.ar    1  ZINC000509132103   -0.1100
     28 C28       -10.7823   -0.6577   58.8622 C.3     1  ZINC000509132103    0.1200
     29 N29       -12.1138   -3.7688   54.2917 N.ar    1  ZINC000509132103   -0.1900
     30 N30       -11.8016   -3.1659   53.2025 N.ar    1  ZINC000509132103   -0.3000
     31 H31       -13.6603   -0.2557   51.3659 H       1  ZINC000509132103    0.0600
     32 H32       -12.8687   -0.5985   49.8090 H       1  ZINC000509132103    0.1000
     33 H33       -14.1292   -1.6931   50.4265 H       1  ZINC000509132103    0.0600
     34 H34       -14.7147   -1.7351   52.4542 H       1  ZINC000509132103    0.1600
     35 H35       -15.3155   -2.9219   54.5706 H       1  ZINC000509132103    0.1600
     36 H36       -14.3341   -3.8556   56.6802 H       1  ZINC000509132103    0.1100
     37 H37       -14.0929   -5.4100   55.8472 H       1  ZINC000509132103    0.1000
     38 H38       -11.2149   -2.5139   56.6051 H       1  ZINC000509132103    0.1100
     39 H39       -12.4850   -2.4833   57.8517 H       1  ZINC000509132103    0.1100
     40 H40        -9.0096   -3.0156   60.5760 H       1  ZINC000509132103    0.1000
     41 H41        -8.2290   -1.5904   59.8514 H       1  ZINC000509132103    0.0900
     42 H42        -8.0505   -1.9138   62.6567 H       1  ZINC000509132103    0.1200
     43 H43        -8.6908   -0.5732   64.6153 H       1  ZINC000509132103    0.1300
     44 H44       -10.6184    0.9583   64.4758 H       1  ZINC000509132103    0.1200
     45 H45       -11.8979    1.1288   62.3861 H       1  ZINC000509132103    0.1200
     46 H46        -9.8885    1.9270   59.6860 H       1  ZINC000509132103    0.1200
     47 H47       -10.4930    4.2933   59.3722 H       1  ZINC000509132103    0.1200
     48 H48       -12.8585    4.9760   59.4160 H       1  ZINC000509132103    0.1200
     49 H49       -14.6194    3.2923   59.7728 H       1  ZINC000509132103    0.1200
     50 H50       -14.0153    0.9253   60.0820 H       1  ZINC000509132103    0.1200
     51 H51        -9.9995    0.0556   58.6043 H       1  ZINC000509132103    0.0800
     52 H52       -11.4709   -0.7693   58.0246 H       1  ZINC000509132103    0.1000
@<TRIPOS>BOND
     1     1     2    1
     2     1    31    1
     3     1    32    1
     4     1    33    1
     5     2     3    1
     6     3    30   ar
     7     3     4   ar
     8     4     5   ar
     9     4    34    1
    10     5     6   ar
    11     5    35    1
    12     6     7    1
    13     6    29   ar
    14     7     8    1
    15     7    36    1
    16     7    37    1
    17     8     9    1
    18     9    10    1
    19     9    38    1
    20     9    39    1
    21    10    11    2
    22    10    12   am
    23    12    28    1
    24    12    13    1
    25    13    14    1
    26    13    40    1
    27    13    41    1
    28    14    19   ar
    29    14    15   ar
    30    15    16   ar
    31    15    42    1
    32    16    17   ar
    33    16    43    1
    34    17    18   ar
    35    17    44    1
    36    18    19   ar
    37    18    45    1
    38    19    20    1
    39    20    21    1
    40    20    22    1
    41    20    28    1
    42    22    27   ar
    43    22    23   ar
    44    23    24   ar
    45    23    46    1
    46    24    25   ar
    47    24    47    1
    48    25    26   ar
    49    25    48    1
    50    26    27   ar
    51    26    49    1
    52    27    50    1
    53    28    51    1
    54    28    52    1
    55    29    30   ar
@<TRIPOS>SUBSTRUCTURE
     1 ZINC000509132103        1 TEMP              0 ****  ****    0 ROOT


##########                                Name:    ZINC000502834785
##########                DOCK_Rotatable_Bonds:                   9
##########                         Heavy_Atoms:                  26
##########                    Molecular_Weight:             356.468
##########                DOCK_Rotatable_Bonds:                   9
##########                       Formal_Charge:           0.0199998
##########                     HBond_Acceptors:                   6
##########                        HBond_Donors:                   2
##########                         Heavy_Atoms:                  26
##########                          Grid_Score:          -35.470127
##########                     Grid_vdw_energy:          -33.801720
##########                      Grid_es_energy:           -1.668407
##########           Internal_energy_repulsive:           21.708122

@<TRIPOS>MOLECULE
ZINC000502834785
 54 56 1 0 0
SMALL
USER_CHARGES


@<TRIPOS>ATOM
      1 C1          0.8184    2.7179   48.7795 C.3     1  ZINC000502834785   -0.1800
      2 C2          0.3693    1.4535   49.5148 C.3     1  ZINC000502834785    0.0800
      3 C3          1.4636    1.0151   50.4902 C.3     1  ZINC000502834785   -0.1500
      4 O4         -0.8329    1.7248   50.2382 O.3     1  ZINC000502834785   -0.3800
      5 C5         -2.0258    1.5370   49.4743 C.3     1  ZINC000502834785    0.1000
      6 C6         -3.1995    2.1092   50.2267 C.ar    1  ZINC000502834785   -0.0800
      7 C7         -3.0889    2.3797   51.5778 C.ar    1  ZINC000502834785   -0.1000
      8 C8         -4.1654    2.9045   52.2680 C.ar    1  ZINC000502834785   -0.1000
      9 C9         -5.3525    3.1593   51.6070 C.ar    1  ZINC000502834785   -0.1000
     10 C10        -6.5263    3.7311   52.3596 C.3     1  ZINC000502834785    0.1600
     11 N11        -7.3533    2.6384   52.8777 N.am    1  ZINC000502834785   -0.7300
     12 C12        -8.4450    2.2382   52.1964 C.2     1  ZINC000502834785    0.5100
     13 O13        -8.7422    2.7816   51.1537 O.2     1  ZINC000502834785   -0.5200
     14 C14        -9.2967    1.1153   52.7303 C.3     1  ZINC000502834785    0.0300
     15 N15       -10.0364    1.5806   53.9111 N.3     1  ZINC000502834785   -0.5000
     16 C16        -9.1443    1.6935   55.0847 C.3     1  ZINC000502834785    0.0500
     17 C17       -10.0359    1.3241   56.2963 C.3     1  ZINC000502834785   -0.1300
     18 C18       -10.9213    0.1974   55.7019 C.3     1  ZINC000502834785   -0.1300
     19 C19       -11.1357    0.6563   54.2441 C.3     1  ZINC000502834785    0.1500
     20 H20       -12.0926    1.1703   54.1541 H       1  ZINC000502834785    0.1100
     21 C21       -11.1052   -0.5352   53.3219 C.2     1  ZINC000502834785    0.0600
     22 N22       -10.2497   -1.5238   53.3737 N.2     1  ZINC000502834785   -0.2900
     23 N23       -10.5605   -2.4257   52.3479 N.pl3   1  ZINC000502834785   -0.4800
     24 C24       -11.6300   -1.9438   51.6810 C.2     1  ZINC000502834785    0.0600
     25 C25       -11.9903   -0.7782   52.2665 C.2     1  ZINC000502834785   -0.2600
     26 C26        -5.4626    2.8901   50.2557 C.ar    1  ZINC000502834785   -0.1000
     27 C27        -4.3848    2.3688   49.5646 C.ar    1  ZINC000502834785   -0.1000
     28 H28         0.0388    3.0302   48.0846 H       1  ZINC000502834785    0.0600
     29 H29         1.0009    3.5131   49.5023 H       1  ZINC000502834785    0.0600
     30 H30         1.7354    2.5110   48.2277 H       1  ZINC000502834785    0.0700
     31 H31         0.1869    0.6583   48.7921 H       1  ZINC000502834785    0.0600
     32 H32         1.6460    1.8103   51.2129 H       1  ZINC000502834785    0.0600
     33 H33         1.1436    0.1143   51.0140 H       1  ZINC000502834785    0.0600
     34 H34         2.3805    0.8081   49.9384 H       1  ZINC000502834785    0.0700
     35 H35        -1.9267    2.0450   48.5149 H       1  ZINC000502834785    0.0600
     36 H36        -2.1860    0.4720   49.3065 H       1  ZINC000502834785    0.0600
     37 H37        -2.1614    2.1807   52.0942 H       1  ZINC000502834785    0.1300
     38 H38        -4.0793    3.1152   53.3237 H       1  ZINC000502834785    0.1300
     39 H39        -6.1649    4.3382   53.1896 H       1  ZINC000502834785    0.0800
     40 H40        -7.1214    4.3503   51.6885 H       1  ZINC000502834785    0.0800
     41 H41        -7.1149    2.2029   53.7111 H       1  ZINC000502834785    0.4000
     42 H42       -10.0015    0.7970   51.9622 H       1  ZINC000502834785    0.1000
     43 H43        -8.6590    0.2763   53.0084 H       1  ZINC000502834785    0.0800
     44 H44        -8.3129    0.9939   54.9980 H       1  ZINC000502834785    0.0400
     45 H45        -8.7740    2.7140   55.1832 H       1  ZINC000502834785    0.1000
     46 H46        -9.4337    0.9513   57.1249 H       1  ZINC000502834785    0.0800
     47 H47       -10.6428    2.1741   56.6081 H       1  ZINC000502834785    0.0800
     48 H48       -10.3997   -0.7592   55.7321 H       1  ZINC000502834785    0.0800
     49 H49       -11.8727    0.1356   56.2303 H       1  ZINC000502834785    0.0800
     50 H50       -10.0900   -3.2510   52.1517 H       1  ZINC000502834785    0.4400
     51 H51       -12.1144   -2.4075   50.8344 H       1  ZINC000502834785    0.1800
     52 H52       -12.8122   -0.1445   51.9677 H       1  ZINC000502834785    0.1500
     53 H53        -6.3899    3.0895   49.7391 H       1  ZINC000502834785    0.1300
     54 H54        -4.4709    2.1585   48.5088 H       1  ZINC000502834785    0.1200
@<TRIPOS>BOND
     1     1     2    1
     2     1    28    1
     3     1    29    1
     4     1    30    1
     5     2     3    1
     6     2     4    1
     7     2    31    1
     8     3    32    1
     9     3    33    1
    10     3    34    1
    11     4     5    1
    12     5     6    1
    13     5    35    1
    14     5    36    1
    15     6    27   ar
    16     6     7   ar
    17     7     8   ar
    18     7    37    1
    19     8     9   ar
    20     8    38    1
    21     9    10    1
    22     9    26   ar
    23    10    11    1
    24    10    39    1
    25    10    40    1
    26    11    12   am
    27    11    41    1
    28    12    13    2
    29    12    14    1
    30    14    15    1
    31    14    42    1
    32    14    43    1
    33    15    19    1
    34    15    16    1
    35    16    17    1
    36    16    44    1
    37    16    45    1
    38    17    18    1
    39    17    46    1
    40    17    47    1
    41    18    19    1
    42    18    48    1
    43    18    49    1
    44    19    20    1
    45    19    21    1
    46    21    25    1
    47    21    22    2
    48    22    23    1
    49    23    24    1
    50    23    50    1
    51    24    25    2
    52    24    51    1
    53    25    52    1
    54    26    27   ar
    55    26    53    1
    56    27    54    1
@<TRIPOS>SUBSTRUCTURE
     1 ZINC000502834785        1 TEMP              0 ****  ****    0 ROOT


##########                                Name:    ZINC000123469372
##########                DOCK_Rotatable_Bonds:                   7
##########                         Heavy_Atoms:                  25
##########                    Molecular_Weight:             341.382
##########                DOCK_Rotatable_Bonds:                   7
##########                       Formal_Charge:          -0.0300001
##########                     HBond_Acceptors:                   5
##########                        HBond_Donors:                   2
##########                         Heavy_Atoms:                  25
##########                          Grid_Score:          -35.451374
##########                     Grid_vdw_energy:          -31.882383
##########                      Grid_es_energy:           -3.568991
##########           Internal_energy_repulsive:            9.341089

@<TRIPOS>MOLECULE
ZINC000123469372
 45 47 1 0 0
SMALL
USER_CHARGES


@<TRIPOS>ATOM
      1 C1         -0.4899    4.0267   50.4088 C.3     1  ZINC000123469372   -0.1700
      2 C2         -1.1958    2.7884   49.8523 C.3     1  ZINC000123469372    0.1500
      3 H3         -1.5118    2.9804   48.8269 H       1  ZINC000123469372    0.0900
      4 C4         -0.2333    1.5993   49.8751 C.3     1  ZINC000123469372   -0.1600
      5 C5          0.9294    1.8659   48.9171 C.3     1  ZINC000123469372    0.1500
      6 H6          0.7304    2.7739   48.3480 H       1  ZINC000123469372    0.1100
      7 O7          1.0700    0.7626   48.0198 O.3     1  ZINC000123469372   -0.5500
      8 C8          2.2018    2.0365   49.7066 C.ar    1  ZINC000123469372   -0.1200
      9 C9          2.9823    3.1627   49.5245 C.ar    1  ZINC000123469372   -0.1100
     10 C10         4.1495    3.3193   50.2486 C.ar    1  ZINC000123469372   -0.1200
     11 C11         4.5357    2.3497   51.1551 C.ar    1  ZINC000123469372   -0.1200
     12 C12         3.7546    1.2240   51.3379 C.ar    1  ZINC000123469372   -0.1200
     13 C13         2.5853    1.0694   50.6169 C.ar    1  ZINC000123469372   -0.1100
     14 N14        -2.3684    2.4835   50.6757 N.am    1  ZINC000123469372   -0.7100
     15 C15        -3.5171    2.0878   50.0922 C.2     1  ZINC000123469372    0.5700
     16 O16        -3.5806    1.9852   48.8809 O.2     1  ZINC000123469372   -0.5400
     17 C17        -4.6872    1.7816   50.9142 C.2     1  ZINC000123469372   -0.2200
     18 C18        -5.4800    0.7263   50.6042 C.2     1  ZINC000123469372    0.0000
     19 C19        -6.6552    0.4759   51.4531 C.ar    1  ZINC000123469372   -0.1200
     20 C20        -7.3271   -0.7452   51.4239 C.ar    1  ZINC000123469372   -0.0900
     21 C21        -8.4270   -0.9362   52.2383 C.ar    1  ZINC000123469372    0.0700
     22 F22        -9.0834   -2.1168   52.2162 F       1  ZINC000123469372   -0.1400
     23 C23        -8.8599    0.0788   53.0790 C.ar    1  ZINC000123469372   -0.1100
     24 C24        -8.1997    1.2934   53.1143 C.ar    1  ZINC000123469372   -0.1200
     25 C25        -7.0969    1.5021   52.3064 C.ar    1  ZINC000123469372    0.1300
     26 O26        -6.4288    2.6822   52.3178 O.3     1  ZINC000123469372   -0.3000
     27 C27        -5.0136    2.6338   52.1130 C.3     1  ZINC000123469372    0.1100
     28 H28         0.3826    4.2535   49.7961 H       1  ZINC000123469372    0.0700
     29 H29        -1.1756    4.8737   50.3925 H       1  ZINC000123469372    0.0600
     30 H30        -0.1739    3.8347   51.4341 H       1  ZINC000123469372    0.0600
     31 H31         0.1522    1.4633   50.8855 H       1  ZINC000123469372    0.0900
     32 H32        -0.7616    0.6983   49.5635 H       1  ZINC000123469372    0.0800
     33 H33         0.2545    0.5253   47.5575 H       1  ZINC000123469372    0.3700
     34 H34         2.6806    3.9202   48.8162 H       1  ZINC000123469372    0.1200
     35 H35         4.7597    4.1988   50.1058 H       1  ZINC000123469372    0.1200
     36 H36         5.4478    2.4717   51.7203 H       1  ZINC000123469372    0.1200
     37 H37         4.0565    0.4664   52.0459 H       1  ZINC000123469372    0.1200
     38 H38         1.9750    0.1899   50.7596 H       1  ZINC000123469372    0.1200
     39 H39        -2.3182    2.5664   51.6408 H       1  ZINC000123469372    0.4000
     40 H40        -5.2560    0.0899   49.7608 H       1  ZINC000123469372    0.1500
     41 H41        -6.9909   -1.5359   50.7695 H       1  ZINC000123469372    0.1500
     42 H42        -9.7206   -0.0810   53.7115 H       1  ZINC000123469372    0.1500
     43 H43        -8.5448    2.0777   53.7716 H       1  ZINC000123469372    0.1500
     44 H44        -4.5351    2.2182   52.9997 H       1  ZINC000123469372    0.0800
     45 H45        -4.6390    3.6437   51.9451 H       1  ZINC000123469372    0.1100
@<TRIPOS>BOND
     1     1     2    1
     2     1    28    1
     3     1    29    1
     4     1    30    1
     5     2     3    1
     6     2     4    1
     7     2    14    1
     8     4     5    1
     9     4    31    1
    10     4    32    1
    11     5     6    1
    12     5     7    1
    13     5     8    1
    14     7    33    1
    15     8    13   ar
    16     8     9   ar
    17     9    10   ar
    18     9    34    1
    19    10    11   ar
    20    10    35    1
    21    11    12   ar
    22    11    36    1
    23    12    13   ar
    24    12    37    1
    25    13    38    1
    26    14    15   am
    27    14    39    1
    28    15    16    2
    29    15    17    1
    30    17    27    1
    31    17    18    2
    32    18    19    1
    33    18    40    1
    34    19    25   ar
    35    19    20   ar
    36    20    21   ar
    37    20    41    1
    38    21    22    1
    39    21    23   ar
    40    23    24   ar
    41    23    42    1
    42    24    25   ar
    43    24    43    1
    44    25    26    1
    45    26    27    1
    46    27    44    1
    47    27    45    1
@<TRIPOS>SUBSTRUCTURE
     1 ZINC000123469372        1 TEMP              0 ****  ****    0 ROOT


##########                                Name:    ZINC000047262406
##########                DOCK_Rotatable_Bonds:                   6
##########                         Heavy_Atoms:                  28
##########                    Molecular_Weight:             417.919
##########                DOCK_Rotatable_Bonds:                   6
##########                       Formal_Charge:          -0.0100002
##########                     HBond_Acceptors:                   9
##########                        HBond_Donors:                   1
##########                         Heavy_Atoms:                  28
##########                          Grid_Score:          -35.450489
##########                     Grid_vdw_energy:          -33.176914
##########                      Grid_es_energy:           -2.273576
##########           Internal_energy_repulsive:           10.272929

@<TRIPOS>MOLECULE
ZINC000047262406
 48 51 1 0 0
SMALL
USER_CHARGES


@<TRIPOS>ATOM
      1 C1        -13.7223   -3.7650   54.8923 C.3     1  ZINC000047262406   -0.1500
      2 C2        -13.0957   -2.3715   54.9740 C.3     1  ZINC000047262406    0.1800
      3 H3        -13.8142   -1.6291   54.6263 H       1  ZINC000047262406    0.0800
      4 C4        -11.8640   -2.3229   54.1072 C.2     1  ZINC000047262406    0.1700
      5 N5        -11.3273   -3.3292   53.4767 N.2     1  ZINC000047262406   -0.2500
      6 N6        -10.2873   -2.9300   52.8330 N.2     1  ZINC000047262406   -0.2700
      7 C7        -10.1229   -1.6404   53.0329 C.2     1  ZINC000047262406    0.2400
      8 C8         -9.0526   -0.8001   52.4753 C.2     1  ZINC000047262406   -0.1500
      9 C9         -8.9820    0.5557   52.5772 C.2     1  ZINC000047262406   -0.0600
     10 C10        -7.8797    1.1163   51.9706 C.2     1  ZINC000047262406   -0.1400
     11 C11        -7.0531    0.2483   51.3782 C.2     1  ZINC000047262406   -0.1900
     12 S12        -7.6590   -1.3900   51.5788 S.3     1  ZINC000047262406    0.1700
     13 O13       -11.1236   -1.2316   53.8400 O.3     1  ZINC000047262406   -0.2200
     14 N14       -12.7266   -2.0814   56.3660 N.3     1  ZINC000047262406   -0.5200
     15 C15       -12.7110   -0.6344   56.6156 C.3     1  ZINC000047262406    0.0500
     16 C16       -12.4667   -0.3748   58.1039 C.3     1  ZINC000047262406   -0.1000
     17 C17       -11.1283   -0.9966   58.5125 C.3     1  ZINC000047262406   -0.1100
     18 C18       -10.9103   -0.7962   59.9901 C.2     1  ZINC000047262406    0.5100
     19 O19       -11.7565   -1.1536   60.7820 O.2     1  ZINC000047262406   -0.4600
     20 N20        -9.7746   -0.2199   60.4316 N.am    1  ZINC000047262406   -0.6600
     21 C21        -9.5728   -0.0345   61.7990 C.ar    1  ZINC000047262406    0.3600
     22 C22        -9.9698    1.1550   62.3982 C.ar    1  ZINC000047262406   -0.2000
     23 C23        -9.7643    1.3265   63.7560 C.ar    1  ZINC000047262406   -0.0400
     24 C24        -9.1658    0.2970   64.4706 C.ar    1  ZINC000047262406   -0.1200
     25 Cl25       -8.8854    0.4601   66.1761 Cl      1  ZINC000047262406   -0.0500
     26 C26        -8.7963   -0.8592   63.8092 C.ar    1  ZINC000047262406    0.1500
     27 N27        -9.0099   -0.9951   62.5147 N.ar    1  ZINC000047262406   -0.4600
     28 C28       -11.1533   -2.4948   58.1974 C.3     1  ZINC000047262406   -0.1100
     29 C29       -11.4357   -2.6929   56.7065 C.3     1  ZINC000047262406    0.0600
     30 H30       -14.6131   -3.8000   55.5194 H       1  ZINC000047262406    0.0800
     31 H31       -13.9962   -3.9802   53.8595 H       1  ZINC000047262406    0.0700
     32 H32       -13.0038   -4.5073   55.2400 H       1  ZINC000047262406    0.0800
     33 H33        -9.7287    1.1431   53.0909 H       1  ZINC000047262406    0.1600
     34 H34        -7.6965    2.1807   51.9729 H       1  ZINC000047262406    0.1600
     35 H35        -6.1452    0.5139   50.8572 H       1  ZINC000047262406    0.1800
     36 H36       -11.9146   -0.1735   56.0311 H       1  ZINC000047262406    0.0400
     37 H37       -13.6697   -0.2052   56.3247 H       1  ZINC000047262406    0.0900
     38 H38       -12.4396    0.6995   58.2863 H       1  ZINC000047262406    0.0800
     39 H39       -13.2699   -0.8236   58.6883 H       1  ZINC000047262406    0.0900
     40 H40       -10.3206   -0.5200   57.9572 H       1  ZINC000047262406    0.1000
     41 H41        -9.0979    0.0660   59.7982 H       1  ZINC000047262406    0.4200
     42 H42       -10.4322    1.9353   61.8119 H       1  ZINC000047262406    0.1500
     43 H43       -10.0622    2.2403   64.2487 H       1  ZINC000047262406    0.1500
     44 H44        -8.3301   -1.6628   64.3600 H       1  ZINC000047262406    0.1700
     45 H45       -10.1879   -2.9351   58.4466 H       1  ZINC000047262406    0.0700
     46 H46       -11.9360   -2.9769   58.7832 H       1  ZINC000047262406    0.0800
     47 H47       -11.4682   -3.7590   56.4815 H       1  ZINC000047262406    0.0700
     48 H48       -10.6454   -2.2225   56.1215 H       1  ZINC000047262406    0.0400
@<TRIPOS>BOND
     1     1     2    1
     2     1    30    1
     3     1    31    1
     4     1    32    1
     5     2     3    1
     6     2     4    1
     7     2    14    1
     8     4    13    1
     9     4     5    2
    10     5     6    1
    11     6     7    2
    12     7     8    1
    13     7    13    1
    14     8    12    1
    15     8     9    2
    16     9    10    1
    17     9    33    1
    18    10    11    2
    19    10    34    1
    20    11    12    1
    21    11    35    1
    22    14    29    1
    23    14    15    1
    24    15    16    1
    25    15    36    1
    26    15    37    1
    27    16    17    1
    28    16    38    1
    29    16    39    1
    30    17    18    1
    31    17    28    1
    32    17    40    1
    33    18    19    2
    34    18    20   am
    35    20    21    1
    36    20    41    1
    37    21    27   ar
    38    21    22   ar
    39    22    23   ar
    40    22    42    1
    41    23    24   ar
    42    23    43    1
    43    24    25    1
    44    24    26   ar
    45    26    27   ar
    46    26    44    1
    47    28    29    1
    48    28    45    1
    49    28    46    1
    50    29    47    1
    51    29    48    1
@<TRIPOS>SUBSTRUCTURE
     1 ZINC000047262406        1 TEMP              0 ****  ****    0 ROOT


##########                                Name:    ZINC000864730443
##########                DOCK_Rotatable_Bonds:                  10
##########                         Heavy_Atoms:                  25
##########                    Molecular_Weight:             356.462
##########                DOCK_Rotatable_Bonds:                  10
##########                       Formal_Charge:           0.0299988
##########                     HBond_Acceptors:                   7
##########                        HBond_Donors:                   2
##########                         Heavy_Atoms:                  25
##########                          Grid_Score:          -35.442787
##########                     Grid_vdw_energy:          -34.790634
##########                      Grid_es_energy:           -0.652154
##########           Internal_energy_repulsive:           21.931700

@<TRIPOS>MOLECULE
ZINC000864730443
 57 58 1 0 0
SMALL
USER_CHARGES


@<TRIPOS>ATOM
      1 C1        -14.8794   -1.2722   52.9305 C.3     1  ZINC000864730443   -0.1800
      2 C2        -13.7218   -1.3904   51.9370 C.3     1  ZINC000864730443    0.1400
      3 C3        -14.2699   -1.3580   50.5090 C.3     1  ZINC000864730443   -0.1800
      4 C4        -12.7552   -0.2218   52.1390 C.3     1  ZINC000864730443   -0.1400
      5 O5        -13.0205   -2.6425   52.1580 O.3     1  ZINC000864730443   -0.3600
      6 C6        -12.1120   -2.6672   53.1515 C.2     1  ZINC000864730443    0.6500
      7 O7        -10.9388   -2.4665   52.9069 O.2     1  ZINC000864730443   -0.5700
      8 N8        -12.5039   -2.9145   54.4170 N.am    1  ZINC000864730443   -0.7100
      9 C9        -11.5157   -2.9397   55.4982 C.3     1  ZINC000864730443    0.1500
     10 C10       -12.1863   -3.4077   56.7913 C.3     1  ZINC000864730443   -0.1300
     11 C11       -11.1354   -3.8904   57.7575 C.2     1  ZINC000864730443    0.5300
     12 O12       -10.9698   -5.0796   57.9291 O.2     1  ZINC000864730443   -0.5300
     13 N13       -10.3797   -3.0007   58.4310 N.am    1  ZINC000864730443   -0.7200
     14 C14        -9.3580   -3.4699   59.3704 C.3     1  ZINC000864730443    0.1200
     15 C15        -8.9506   -2.3220   60.2961 C.3     1  ZINC000864730443   -0.1300
     16 C16       -10.1210   -1.3481   60.4466 C.3     1  ZINC000864730443    0.0800
     17 H17       -11.0652   -1.8924   60.4647 H       1  ZINC000864730443    0.0800
     18 C18        -9.9593   -0.5085   61.7388 C.3     1  ZINC000864730443   -0.1500
     19 C19       -10.7889    0.7534   61.3761 C.3     1  ZINC000864730443   -0.1600
     20 C20       -10.5323    0.8895   59.8598 C.3     1  ZINC000864730443    0.0500
     21 O21       -10.1164   -0.3934   59.3733 O.3     1  ZINC000864730443   -0.3800
     22 C22       -12.9621   -2.2440   57.4159 C.3     1  ZINC000864730443   -0.1000
     23 C23       -13.6920   -2.7440   58.6663 C.3     1  ZINC000864730443   -0.1600
     24 C24       -14.6051   -3.9112   58.2821 C.3     1  ZINC000864730443    0.0600
     25 O25       -13.8254   -4.9458   57.6792 O.3     1  ZINC000864730443   -0.3700
     26 C26       -13.1575   -4.5493   56.4795 C.3     1  ZINC000864730443    0.0800
     27 H27       -15.5682   -2.1046   52.7865 H       1  ZINC000864730443    0.0900
     28 H28       -14.4891   -1.2952   53.9479 H       1  ZINC000864730443    0.0600
     29 H29       -15.4060   -0.3323   52.7645 H       1  ZINC000864730443    0.0700
     30 H30       -14.7964   -0.4181   50.3431 H       1  ZINC000864730443    0.0700
     31 H31       -13.4451   -1.4422   49.8013 H       1  ZINC000864730443    0.0600
     32 H32       -14.9585   -2.1906   50.3652 H       1  ZINC000864730443    0.0900
     33 H33       -12.3647   -0.2449   53.1564 H       1  ZINC000864730443    0.0700
     34 H34       -11.9304   -0.3060   51.4313 H       1  ZINC000864730443    0.0700
     35 H35       -13.2817    0.7181   51.9731 H       1  ZINC000864730443    0.0800
     36 H36       -13.4403   -3.0759   54.6120 H       1  ZINC000864730443    0.4100
     37 H37       -10.7097   -3.6258   55.2379 H       1  ZINC000864730443    0.0900
     38 H38       -11.1087   -1.9387   55.6417 H       1  ZINC000864730443    0.0800
     39 H39       -10.5121   -2.0496   58.2938 H       1  ZINC000864730443    0.4000
     40 H40        -9.7603   -4.2905   59.9645 H       1  ZINC000864730443    0.0700
     41 H41        -8.4861   -3.8164   58.8156 H       1  ZINC000864730443    0.0700
     42 H42        -8.6824   -2.7216   61.2741 H       1  ZINC000864730443    0.0800
     43 H43        -8.0946   -1.7983   59.8705 H       1  ZINC000864730443    0.0800
     44 H44       -10.3855   -1.0250   62.5988 H       1  ZINC000864730443    0.0900
     45 H45        -8.9139   -0.2543   61.9138 H       1  ZINC000864730443    0.0800
     46 H46       -11.8480    0.5924   61.5774 H       1  ZINC000864730443    0.0800
     47 H47       -10.4196    1.6277   61.9120 H       1  ZINC000864730443    0.0800
     48 H48       -11.4492    1.1951   59.3557 H       1  ZINC000864730443    0.0700
     49 H49        -9.7483    1.6255   59.6821 H       1  ZINC000864730443    0.0700
     50 H50       -12.2684   -1.4497   57.6917 H       1  ZINC000864730443    0.0800
     51 H51       -13.6882   -1.8626   56.6978 H       1  ZINC000864730443    0.0800
     52 H52       -12.9629   -3.0793   59.4039 H       1  ZINC000864730443    0.0900
     53 H53       -14.2909   -1.9358   59.0861 H       1  ZINC000864730443    0.0800
     54 H54       -15.0948   -4.2988   59.1754 H       1  ZINC000864730443    0.1000
     55 H55       -15.3591   -3.5653   57.5751 H       1  ZINC000864730443    0.0500
     56 H56       -13.8928   -4.2118   55.7489 H       1  ZINC000864730443    0.0700
     57 H57       -12.6046   -5.3966   56.0742 H       1  ZINC000864730443    0.1000
@<TRIPOS>BOND
     1     1     2    1
     2     1    27    1
     3     1    28    1
     4     1    29    1
     5     2     3    1
     6     2     4    1
     7     2     5    1
     8     3    30    1
     9     3    31    1
    10     3    32    1
    11     4    33    1
    12     4    34    1
    13     4    35    1
    14     5     6    1
    15     6     7    2
    16     6     8   am
    17     8     9    1
    18     8    36    1
    19     9    10    1
    20     9    37    1
    21     9    38    1
    22    10    26    1
    23    10    11    1
    24    10    22    1
    25    11    12    2
    26    11    13   am
    27    13    14    1
    28    13    39    1
    29    14    15    1
    30    14    40    1
    31    14    41    1
    32    15    16    1
    33    15    42    1
    34    15    43    1
    35    16    17    1
    36    16    21    1
    37    16    18    1
    38    18    19    1
    39    18    44    1
    40    18    45    1
    41    19    20    1
    42    19    46    1
    43    19    47    1
    44    20    21    1
    45    20    48    1
    46    20    49    1
    47    22    23    1
    48    22    50    1
    49    22    51    1
    50    23    24    1
    51    23    52    1
    52    23    53    1
    53    24    25    1
    54    24    54    1
    55    24    55    1
    56    25    26    1
    57    26    56    1
    58    26    57    1
@<TRIPOS>SUBSTRUCTURE
     1 ZINC000864730443        1 TEMP              0 ****  ****    0 ROOT


##########                                Name:    ZINC000906038034
##########                DOCK_Rotatable_Bonds:                   5
##########                         Heavy_Atoms:                  23
##########                    Molecular_Weight:             387.428
##########                DOCK_Rotatable_Bonds:                   5
##########                       Formal_Charge:         -0.00999987
##########                     HBond_Acceptors:                  12
##########                        HBond_Donors:                   0
##########                         Heavy_Atoms:                  23
##########                          Grid_Score:          -35.427338
##########                     Grid_vdw_energy:          -30.749521
##########                      Grid_es_energy:           -4.677818
##########           Internal_energy_repulsive:            3.141227

@<TRIPOS>MOLECULE
ZINC000906038034
 35 36 1 0 0
SMALL
USER_CHARGES


@<TRIPOS>ATOM
      1 C1        -11.6056    2.9394   55.4554 C.3     1  ZINC000906038034    0.1000
      2 N2        -10.3711    2.4309   54.8522 N.pl3   1  ZINC000906038034   -0.3700
      3 C3         -9.4767    1.6127   55.4481 C.2     1  ZINC000906038034    0.0600
      4 C4         -8.4798    1.3727   54.5696 C.2     1  ZINC000906038034   -0.2500
      5 C5         -8.7731    2.0734   53.3814 C.2     1  ZINC000906038034    0.1200
      6 C6         -7.9469    2.0915   52.1549 C.2     1  ZINC000906038034    0.1500
      7 N7         -6.8108    1.4742   51.9998 N.2     1  ZINC000906038034   -0.4300
      8 C8         -6.2150    1.6038   50.8362 C.2     1  ZINC000906038034    0.0600
      9 C9         -4.8972    0.9385   50.5335 C.3     1  ZINC000906038034   -0.5300
     10 S10        -3.7990    2.1211   49.7051 S.o2    1  ZINC000906038034    2.4200
     11 O11        -4.1009    2.1232   48.3165 O.2     1  ZINC000906038034   -0.9100
     12 O12        -3.8290    3.3466   50.4235 O.2     1  ZINC000906038034   -0.9200
     13 C13        -2.1732    1.3521   49.9419 C.3     1  ZINC000906038034   -0.6100
     14 C14        -1.0794    2.3232   49.4931 C.3     1  ZINC000906038034   -0.4500
     15 S15         0.4379    1.3983   49.1283 S.o     1  ZINC000906038034    1.3300
     16 O16         0.9115    0.7780   50.3158 O.2     1  ZINC000906038034   -0.7600
     17 C17         1.5967    2.6989   48.6221 C.3     1  ZINC000906038034    0.1200
     18 F18         1.7616    3.6106   49.6704 F       1  ZINC000906038034   -0.1900
     19 F19         2.8324    2.1247   48.3047 F       1  ZINC000906038034   -0.1700
     20 F20         1.0899    3.3644   47.5007 F       1  ZINC000906038034   -0.1600
     21 C21        -6.8504    2.3619   49.9373 C.2     1  ZINC000906038034   -0.2300
     22 S22        -8.3452    2.9455   50.6663 S.3     1  ZINC000906038034    0.1600
     23 N23        -9.9170    2.7044   53.5557 N.2     1  ZINC000906038034   -0.2400
     24 H24       -12.4214    2.2453   55.2532 H       1  ZINC000906038034    0.0800
     25 H25       -11.4703    3.0371   56.5326 H       1  ZINC000906038034    0.0900
     26 H26       -11.8436    3.9140   55.0292 H       1  ZINC000906038034    0.0900
     27 H27        -9.5465    1.2197   56.4517 H       1  ZINC000906038034    0.1800
     28 H28        -7.6120    0.7546   54.7457 H       1  ZINC000906038034    0.1600
     29 H29        -4.4366    0.6047   51.4632 H       1  ZINC000906038034    0.1500
     30 H30        -5.0644    0.0804   49.8824 H       1  ZINC000906038034    0.1600
     31 H31        -2.0352    1.1113   50.9959 H       1  ZINC000906038034    0.1500
     32 H32        -2.1135    0.4389   49.3498 H       1  ZINC000906038034    0.1500
     33 H33        -1.4073    2.8511   48.5976 H       1  ZINC000906038034    0.1600
     34 H34        -0.8840    3.0430   50.2880 H       1  ZINC000906038034    0.1300
     35 H35        -6.5088    2.5764   48.9354 H       1  ZINC000906038034    0.1900
@<TRIPOS>BOND
     1     1     2    1
     2     1    24    1
     3     1    25    1
     4     1    26    1
     5     2    23    1
     6     2     3    1
     7     3     4    2
     8     3    27    1
     9     4     5    1
    10     4    28    1
    11     5     6    1
    12     5    23    2
    13     6    22    1
    14     6     7    2
    15     7     8    1
    16     8     9    1
    17     8    21    2
    18     9    10    1
    19     9    29    1
    20     9    30    1
    21    10    11    2
    22    10    12    2
    23    10    13    1
    24    13    14    1
    25    13    31    1
    26    13    32    1
    27    14    15    1
    28    14    33    1
    29    14    34    1
    30    15    16    2
    31    15    17    1
    32    17    18    1
    33    17    19    1
    34    17    20    1
    35    21    22    1
    36    21    35    1
@<TRIPOS>SUBSTRUCTURE
     1 ZINC000906038034        1 TEMP              0 ****  ****    0 ROOT


##########                                Name:    ZINC000190927708
##########                DOCK_Rotatable_Bonds:                  10
##########                         Heavy_Atoms:                  26
##########                    Molecular_Weight:             358.437
##########                DOCK_Rotatable_Bonds:                  10
##########                       Formal_Charge:           0.0499998
##########                     HBond_Acceptors:                   6
##########                        HBond_Donors:                   1
##########                         Heavy_Atoms:                  26
##########                          Grid_Score:          -35.404301
##########                     Grid_vdw_energy:          -33.249981
##########                      Grid_es_energy:           -2.154319
##########           Internal_energy_repulsive:           24.522583

@<TRIPOS>MOLECULE
ZINC000190927708
 52 53 1 0 0
SMALL
USER_CHARGES


@<TRIPOS>ATOM
      1 C1        -10.6031    4.8235   48.9659 C.3     1  ZINC000190927708   -0.1500
      2 C2        -10.1926    3.5337   49.6793 C.3     1  ZINC000190927708   -0.1500
      3 C3         -9.8077    3.8511   51.1256 C.3     1  ZINC000190927708    0.1000
      4 N4         -9.0418    2.7339   51.6836 N.am    1  ZINC000190927708   -0.5900
      5 C5         -7.7735    2.5188   51.2814 C.2     1  ZINC000190927708    0.5300
      6 O6         -7.2668    3.2493   50.4565 O.2     1  ZINC000190927708   -0.5300
      7 C7         -6.9851    1.3706   51.8567 C.3     1  ZINC000190927708   -0.0800
      8 C8         -5.6064    1.3532   51.2486 C.2     1  ZINC000190927708   -0.1700
      9 C9         -4.6914    2.2814   51.6227 C.2     1  ZINC000190927708    0.0000
     10 C10        -3.3608    2.2368   51.0135 C.ar    1  ZINC000190927708   -0.1300
     11 C11        -2.3751    3.1664   51.3598 C.ar    1  ZINC000190927708   -0.0500
     12 C12        -1.1428    3.0970   50.7736 C.ar    1  ZINC000190927708   -0.1500
     13 C13        -0.8605    2.1122   49.8374 C.ar    1  ZINC000190927708   -0.0600
     14 C14        -1.8168    1.1858   49.4805 C.ar    1  ZINC000190927708   -0.1600
     15 C15        -3.0781    1.2363   50.0642 C.ar    1  ZINC000190927708    0.1900
     16 N16        -4.0534    0.3223   49.7264 N.am    1  ZINC000190927708   -0.6300
     17 C17        -5.2705    0.3674   50.2960 C.2     1  ZINC000190927708    0.5500
     18 O18        -6.1085   -0.4568   49.9732 O.2     1  ZINC000190927708   -0.5300
     19 C19        -9.6545    1.8503   52.6787 C.3     1  ZINC000190927708    0.1500
     20 H20        -9.1236    0.8984   52.6952 H       1  ZINC000190927708    0.1400
     21 C21       -11.1207    1.6102   52.3135 C.3     1  ZINC000190927708   -0.1300
     22 C22       -11.6277    0.3595   53.0342 C.3     1  ZINC000190927708   -0.1500
     23 C23        -9.5743    2.4938   54.0390 C.2     1  ZINC000190927708    0.4500
     24 O24        -9.5688    3.6980   54.1382 O.2     1  ZINC000190927708   -0.5000
     25 O25        -9.5091    1.7293   55.1403 O.3     1  ZINC000190927708   -0.3500
     26 C26        -9.7972    2.3746   56.4087 C.3     1  ZINC000190927708    0.0600
     27 C27       -11.2848    2.7257   56.4761 C.3     1  ZINC000190927708   -0.1500
     28 H28        -9.7686    5.5247   48.9743 H       1  ZINC000190927708    0.0600
     29 H29       -10.8773    4.5973   47.9355 H       1  ZINC000190927708    0.0600
     30 H30       -11.4557    5.2673   49.4797 H       1  ZINC000190927708    0.0600
     31 H31       -11.0271    2.8325   49.6710 H       1  ZINC000190927708    0.0800
     32 H32        -9.3399    3.0898   49.1654 H       1  ZINC000190927708    0.0700
     33 H33        -9.2003    4.7560   51.1498 H       1  ZINC000190927708    0.0900
     34 H34       -10.7106    4.0037   51.7168 H       1  ZINC000190927708    0.0900
     35 H35        -6.9042    1.4905   52.9371 H       1  ZINC000190927708    0.1100
     36 H36        -7.4931    0.4325   51.6324 H       1  ZINC000190927708    0.1200
     37 H37        -4.9387    3.0368   52.3537 H       1  ZINC000190927708    0.1400
     38 H38        -2.5870    3.9359   52.0873 H       1  ZINC000190927708    0.1400
     39 H39        -0.3818    3.8153   51.0410 H       1  ZINC000190927708    0.1300
     40 H40         0.1187    2.0714   49.3834 H       1  ZINC000190927708    0.1300
     41 H41        -1.5873    0.4233   48.7508 H       1  ZINC000190927708    0.1300
     42 H42        -3.8574   -0.3658   49.0714 H       1  ZINC000190927708    0.4200
     43 H43       -11.7164    2.4712   52.6171 H       1  ZINC000190927708    0.0900
     44 H44       -11.2085    1.4695   51.2362 H       1  ZINC000190927708    0.0800
     45 H45       -12.6723    0.1885   52.7741 H       1  ZINC000190927708    0.0600
     46 H46       -11.0320   -0.5013   52.7307 H       1  ZINC000190927708    0.0600
     47 H47       -11.5399    0.5003   54.1115 H       1  ZINC000190927708    0.0600
     48 H48        -9.5462    1.6981   57.2258 H       1  ZINC000190927708    0.0700
     49 H49        -9.2045    3.2852   56.4960 H       1  ZINC000190927708    0.0700
     50 H50       -11.5358    3.4022   55.6592 H       1  ZINC000190927708    0.0700
     51 H51       -11.8775    1.8151   56.3889 H       1  ZINC000190927708    0.0700
     52 H52       -11.5010    3.2101   57.4284 H       1  ZINC000190927708    0.0800
@<TRIPOS>BOND
     1     1     2    1
     2     1    28    1
     3     1    29    1
     4     1    30    1
     5     2     3    1
     6     2    31    1
     7     2    32    1
     8     3     4    1
     9     3    33    1
    10     3    34    1
    11     4     5   am
    12     4    19    1
    13     5     6    2
    14     5     7    1
    15     7     8    1
    16     7    35    1
    17     7    36    1
    18     8    17    1
    19     8     9    2
    20     9    10    1
    21     9    37    1
    22    10    15   ar
    23    10    11   ar
    24    11    12   ar
    25    11    38    1
    26    12    13   ar
    27    12    39    1
    28    13    14   ar
    29    13    40    1
    30    14    15   ar
    31    14    41    1
    32    15    16    1
    33    16    17   am
    34    16    42    1
    35    17    18    2
    36    19    20    1
    37    19    21    1
    38    19    23    1
    39    21    22    1
    40    21    43    1
    41    21    44    1
    42    22    45    1
    43    22    46    1
    44    22    47    1
    45    23    24    2
    46    23    25    1
    47    25    26    1
    48    26    27    1
    49    26    48    1
    50    26    49    1
    51    27    50    1
    52    27    51    1
    53    27    52    1
@<TRIPOS>SUBSTRUCTURE
     1 ZINC000190927708        1 TEMP              0 ****  ****    0 ROOT


##########                                Name:    ZINC001342629575
##########                DOCK_Rotatable_Bonds:                   9
##########                         Heavy_Atoms:                  29
##########                    Molecular_Weight:             396.533
##########                DOCK_Rotatable_Bonds:                   9
##########                       Formal_Charge:         -0.00999976
##########                     HBond_Acceptors:                   6
##########                        HBond_Donors:                   0
##########                         Heavy_Atoms:                  29
##########                          Grid_Score:          -35.396450
##########                     Grid_vdw_energy:          -34.659096
##########                      Grid_es_energy:           -0.737355
##########           Internal_energy_repulsive:           16.370914

@<TRIPOS>MOLECULE
ZINC001342629575
 61 64 1 0 0
SMALL
USER_CHARGES


@<TRIPOS>ATOM
      1 C1        -12.4237    1.5920   56.0960 C.2     1  ZINC001342629575   -0.1800
      2 C2        -12.1762    1.7916   54.8252 C.2     1  ZINC001342629575   -0.1600
      3 C3        -10.7533    1.9194   54.3456 C.3     1  ZINC001342629575   -0.0800
      4 C4        -10.6384    1.3467   52.9315 C.3     1  ZINC001342629575    0.0500
      5 H5        -11.2213    1.9587   52.2431 H       1  ZINC001342629575    0.0900
      6 C6         -9.1932    1.3484   52.5047 C.2     1  ZINC001342629575    0.2000
      7 N7         -8.3376    0.3799   52.6713 N.2     1  ZINC001342629575   -0.2700
      8 N8         -7.1939    0.7144   52.1895 N.2     1  ZINC001342629575   -0.3000
      9 C9         -7.2590    1.9243   51.6857 C.2     1  ZINC001342629575    0.3400
     10 N10        -6.2255    2.6210   51.0800 N.3     1  ZINC001342629575   -0.4300
     11 C11        -5.7619    1.9247   49.8522 C.3     1  ZINC001342629575    0.0400
     12 C12        -4.3381    2.4701   49.6099 C.3     1  ZINC001342629575   -0.1200
     13 C13        -3.8531    2.9529   50.9924 C.3     1  ZINC001342629575   -0.1200
     14 C14        -5.0247    2.6586   51.9538 C.3     1  ZINC001342629575    0.0700
     15 H15        -4.8812    1.6959   52.4443 H       1  ZINC001342629575    0.0900
     16 C16        -5.1537    3.7726   52.9945 C.3     1  ZINC001342629575    0.1000
     17 H17        -5.1722    4.7425   52.4974 H       1  ZINC001342629575    0.0700
     18 C18        -3.9654    3.7108   53.9780 C.3     1  ZINC001342629575   -0.1400
     19 C19        -4.6441    4.0381   55.3360 C.3     1  ZINC001342629575   -0.1600
     20 C20        -6.0320    3.3782   55.1378 C.3     1  ZINC001342629575    0.0500
     21 O21        -6.3554    3.5924   53.7528 O.3     1  ZINC001342629575   -0.3700
     22 N22        -8.5380    2.3644   51.8657 N.pl3   1  ZINC001342629575   -0.4600
     23 C23        -9.0918    3.6604   51.4661 C.3     1  ZINC001342629575    0.1100
     24 C24        -9.7095    3.5429   50.0712 C.3     1  ZINC001342629575    0.0500
     25 O25       -10.1835    4.8237   49.6507 O.3     1  ZINC001342629575   -0.3800
     26 C26       -10.7268    4.8371   48.3290 C.3     1  ZINC001342629575    0.0300
     27 C27       -11.1647   -0.0653   52.9171 C.ar    1  ZINC001342629575   -0.0900
     28 C28       -12.1385   -0.4308   52.0064 C.ar    1  ZINC001342629575   -0.0900
     29 C29       -12.6212   -1.7260   51.9930 C.ar    1  ZINC001342629575   -0.1200
     30 C30       -12.1299   -2.6560   52.8901 C.ar    1  ZINC001342629575   -0.1200
     31 C31       -11.1556   -2.2908   53.8002 C.ar    1  ZINC001342629575   -0.1200
     32 C32       -10.6697   -0.9967   53.8106 C.ar    1  ZINC001342629575   -0.1100
     33 H33       -13.4435    1.5005   56.4397 H       1  ZINC001342629575    0.1000
     34 H34       -11.6079    1.5146   56.7994 H       1  ZINC001342629575    0.1000
     35 H35       -12.9920    1.8646   54.1211 H       1  ZINC001342629575    0.1000
     36 H36       -10.4662    2.9708   54.3362 H       1  ZINC001342629575    0.0900
     37 H37       -10.0933    1.3684   55.0155 H       1  ZINC001342629575    0.0800
     38 H38        -5.7338    0.8472   50.0139 H       1  ZINC001342629575    0.0600
     39 H39        -6.4102    2.1669   49.0101 H       1  ZINC001342629575    0.0800
     40 H40        -3.6883    1.6790   49.2358 H       1  ZINC001342629575    0.0800
     41 H41        -4.3660    3.3024   48.9067 H       1  ZINC001342629575    0.0800
     42 H42        -2.9652    2.3988   51.2969 H       1  ZINC001342629575    0.0800
     43 H43        -3.6430    4.0221   50.9677 H       1  ZINC001342629575    0.0800
     44 H44        -3.5266    2.7132   53.9941 H       1  ZINC001342629575    0.0900
     45 H45        -3.2156    4.4616   53.7282 H       1  ZINC001342629575    0.0800
     46 H46        -4.1056    3.5790   56.1651 H       1  ZINC001342629575    0.0800
     47 H47        -4.7378    5.1147   55.4791 H       1  ZINC001342629575    0.0800
     48 H48        -5.9778    2.3111   55.3537 H       1  ZINC001342629575    0.0600
     49 H49        -6.7735    3.8572   55.7771 H       1  ZINC001342629575    0.0900
     50 H50        -9.8589    3.9631   52.1788 H       1  ZINC001342629575    0.1000
     51 H51        -8.2967    4.4059   51.4497 H       1  ZINC001342629575    0.1100
     52 H52        -8.9559    3.1859   49.3691 H       1  ZINC001342629575    0.0600
     53 H53       -10.5413    2.8391   50.1003 H       1  ZINC001342629575    0.0600
     54 H54       -11.0643    5.8444   48.0851 H       1  ZINC001342629575    0.0900
     55 H55        -9.9605    4.5284   47.6180 H       1  ZINC001342629575    0.0400
     56 H56       -11.5702    4.1486   48.2759 H       1  ZINC001342629575    0.0400
     57 H57       -12.5223    0.2958   51.3056 H       1  ZINC001342629575    0.1300
     58 H58       -13.3824   -2.0112   51.2821 H       1  ZINC001342629575    0.1200
     59 H59       -12.5076   -3.6677   52.8803 H       1  ZINC001342629575    0.1200
     60 H60       -10.7720   -3.0173   54.5012 H       1  ZINC001342629575    0.1200
     61 H61        -9.9085   -0.7115   54.5216 H       1  ZINC001342629575    0.1200
@<TRIPOS>BOND
     1     1     2    2
     2     1    33    1
     3     1    34    1
     4     2     3    1
     5     2    35    1
     6     3     4    1
     7     3    36    1
     8     3    37    1
     9     4     5    1
    10     4     6    1
    11     4    27    1
    12     6    22    1
    13     6     7    2
    14     7     8    1
    15     8     9    2
    16     9    10    1
    17     9    22    1
    18    10    14    1
    19    10    11    1
    20    11    12    1
    21    11    38    1
    22    11    39    1
    23    12    13    1
    24    12    40    1
    25    12    41    1
    26    13    14    1
    27    13    42    1
    28    13    43    1
    29    14    15    1
    30    14    16    1
    31    16    17    1
    32    16    21    1
    33    16    18    1
    34    18    19    1
    35    18    44    1
    36    18    45    1
    37    19    20    1
    38    19    46    1
    39    19    47    1
    40    20    21    1
    41    20    48    1
    42    20    49    1
    43    22    23    1
    44    23    24    1
    45    23    50    1
    46    23    51    1
    47    24    25    1
    48    24    52    1
    49    24    53    1
    50    25    26    1
    51    26    54    1
    52    26    55    1
    53    26    56    1
    54    27    32   ar
    55    27    28   ar
    56    28    29   ar
    57    28    57    1
    58    29    30   ar
    59    29    58    1
    60    30    31   ar
    61    30    59    1
    62    31    32   ar
    63    31    60    1
    64    32    61    1
@<TRIPOS>SUBSTRUCTURE
     1 ZINC001342629575        1 TEMP              0 ****  ****    0 ROOT


##########                                Name:    ZINC000967287417
##########                DOCK_Rotatable_Bonds:                   7
##########                         Heavy_Atoms:                  25
##########                    Molecular_Weight:             347.414
##########                DOCK_Rotatable_Bonds:                   7
##########                       Formal_Charge:          -0.0200002
##########                     HBond_Acceptors:                   7
##########                        HBond_Donors:                   1
##########                         Heavy_Atoms:                  25
##########                          Grid_Score:          -35.364540
##########                     Grid_vdw_energy:          -34.021206
##########                      Grid_es_energy:           -1.343336
##########           Internal_energy_repulsive:            7.710013

@<TRIPOS>MOLECULE
ZINC000967287417
 50 52 1 0 0
SMALL
USER_CHARGES


@<TRIPOS>ATOM
      1 C1        -11.0026   -1.7658   53.2140 C.3     1  ZINC000967287417    0.0300
      2 O2         -9.8309   -1.4333   52.4665 O.3     1  ZINC000967287417   -0.3900
      3 C3         -9.2007   -0.2203   52.8829 C.3     1  ZINC000967287417    0.1400
      4 C4         -7.9821    0.0303   52.0324 C.2     1  ZINC000967287417    0.0100
      5 C5         -7.2251   -0.9210   51.4424 C.2     1  ZINC000967287417   -0.1900
      6 C6         -6.1980   -0.2608   50.7498 C.2     1  ZINC000967287417   -0.1200
      7 C7         -6.3827    1.0764   50.9548 C.2     1  ZINC000967287417   -0.0700
      8 C8         -5.5447    2.1542   50.4195 C.2     1  ZINC000967287417    0.6100
      9 O9         -6.0595    3.1056   49.8619 O.2     1  ZINC000967287417   -0.5200
     10 N10        -4.2042    2.0912   50.5447 N.am    1  ZINC000967287417   -0.7000
     11 C11        -3.3671    3.1688   50.0115 C.3     1  ZINC000967287417    0.1600
     12 H12        -3.7706    3.5041   49.0559 H       1  ZINC000967287417    0.1000
     13 C13        -3.3507    4.3388   50.9977 C.3     1  ZINC000967287417    0.0400
     14 N14        -2.7886    3.8927   52.2790 N.3     1  ZINC000967287417   -0.5300
     15 C15        -2.8845    4.9513   53.2929 C.3     1  ZINC000967287417    0.1300
     16 C16        -2.5559    4.3799   54.6482 C.2     1  ZINC000967287417    0.0200
     17 N17        -1.6318    4.7943   55.4660 N.2     1  ZINC000967287417   -0.3500
     18 O18        -1.6070    4.1363   56.4802 O.3     1  ZINC000967287417    0.1000
     19 C19        -2.5385    3.1726   56.4651 C.2     1  ZINC000967287417   -0.0300
     20 C20        -2.8076    2.1609   57.5492 C.3     1  ZINC000967287417   -0.0800
     21 C21        -3.1943    3.2915   55.2859 C.2     1  ZINC000967287417   -0.2400
     22 C22        -1.4009    3.4393   52.1209 C.3     1  ZINC000967287417    0.0500
     23 C23        -1.3592    2.2426   51.1681 C.3     1  ZINC000967287417   -0.1100
     24 C24        -1.9387    2.6551   49.8113 C.3     1  ZINC000967287417   -0.1000
     25 H25        -1.3250    3.4448   49.3780 H       1  ZINC000967287417    0.0900
     26 C26        -1.9541    1.4465   48.8731 C.3     1  ZINC000967287417   -0.1500
     27 O27        -7.4745    1.2328   51.7318 O.3     1  ZINC000967287417   -0.1600
     28 H28       -11.7386   -0.9687   53.1094 H       1  ZINC000967287417    0.0500
     29 H29       -11.4215   -2.6988   52.8369 H       1  ZINC000967287417    0.0900
     30 H30       -10.7414   -1.8836   54.2657 H       1  ZINC000967287417    0.0500
     31 H31        -9.8989    0.6090   52.7707 H       1  ZINC000967287417    0.0900
     32 H32        -8.9029   -0.3057   53.9280 H       1  ZINC000967287417    0.0700
     33 H33        -7.3808   -1.9883   51.4941 H       1  ZINC000967287417    0.1600
     34 H34        -5.4135   -0.7214   50.1676 H       1  ZINC000967287417    0.1600
     35 H35        -3.7937    1.3324   50.9881 H       1  ZINC000967287417    0.4100
     36 H36        -2.7389    5.1456   50.5941 H       1  ZINC000967287417    0.0500
     37 H37        -4.3683    4.6975   51.1528 H       1  ZINC000967287417    0.0900
     38 H38        -2.1801    5.7481   53.0541 H       1  ZINC000967287417    0.0600
     39 H39        -3.8976    5.3532   53.3040 H       1  ZINC000967287417    0.0900
     40 H40        -2.1178    2.3233   58.3772 H       1  ZINC000967287417    0.0800
     41 H41        -3.8326    2.2715   57.9031 H       1  ZINC000967287417    0.0900
     42 H42        -2.6671    1.1559   57.1511 H       1  ZINC000967287417    0.0900
     43 H43        -4.0112    2.6899   54.9156 H       1  ZINC000967287417    0.1700
     44 H44        -0.7982    4.2504   51.7120 H       1  ZINC000967287417    0.0400
     45 H45        -1.0022    3.1448   53.0917 H       1  ZINC000967287417    0.0800
     46 H46        -0.3272    1.9161   51.0388 H       1  ZINC000967287417    0.0700
     47 H47        -1.9502    1.4262   51.5831 H       1  ZINC000967287417    0.0700
     48 H48        -2.5699    0.6583   49.3061 H       1  ZINC000967287417    0.0600
     49 H49        -2.3666    1.7410   47.9081 H       1  ZINC000967287417    0.0600
     50 H50        -0.9369    1.0795   48.7367 H       1  ZINC000967287417    0.0600
@<TRIPOS>BOND
     1     1     2    1
     2     1    28    1
     3     1    29    1
     4     1    30    1
     5     2     3    1
     6     3     4    1
     7     3    31    1
     8     3    32    1
     9     4    27    1
    10     4     5    2
    11     5     6    1
    12     5    33    1
    13     6     7    2
    14     6    34    1
    15     7     8    1
    16     7    27    1
    17     8     9    2
    18     8    10   am
    19    10    11    1
    20    10    35    1
    21    11    12    1
    22    11    24    1
    23    11    13    1
    24    13    14    1
    25    13    36    1
    26    13    37    1
    27    14    15    1
    28    14    22    1
    29    15    16    1
    30    15    38    1
    31    15    39    1
    32    16    21    1
    33    16    17    2
    34    17    18    1
    35    18    19    1
    36    19    20    1
    37    19    21    2
    38    20    40    1
    39    20    41    1
    40    20    42    1
    41    21    43    1
    42    22    23    1
    43    22    44    1
    44    22    45    1
    45    23    24    1
    46    23    46    1
    47    23    47    1
    48    24    25    1
    49    24    26    1
    50    26    48    1
    51    26    49    1
    52    26    50    1
@<TRIPOS>SUBSTRUCTURE
     1 ZINC000967287417        1 TEMP              0 ****  ****    0 ROOT


##########                                Name:    ZINC000052999724
##########                DOCK_Rotatable_Bonds:                   6
##########                         Heavy_Atoms:                  25
##########                    Molecular_Weight:             398.571
##########                DOCK_Rotatable_Bonds:                   6
##########                       Formal_Charge:           0.0399994
##########                     HBond_Acceptors:                   8
##########                        HBond_Donors:                   1
##########                         Heavy_Atoms:                  25
##########                          Grid_Score:          -35.342316
##########                     Grid_vdw_energy:          -32.465351
##########                      Grid_es_energy:           -2.876964
##########           Internal_energy_repulsive:           15.716360

@<TRIPOS>MOLECULE
ZINC000052999724
 47 49 1 0 0
SMALL
USER_CHARGES


@<TRIPOS>ATOM
      1 C1        -10.7705   -2.9507   54.0418 C.3     1  ZINC000052999724   -0.1400
      2 C2        -11.5255   -2.4878   55.2894 C.3     1  ZINC000052999724   -0.0400
      3 C3        -12.2893   -1.1999   54.9747 C.3     1  ZINC000052999724   -0.1400
      4 C4        -12.4981   -3.5577   55.7139 C.2     1  ZINC000052999724   -0.0400
      5 C5        -12.3040   -4.3604   56.8026 C.2     1  ZINC000052999724   -0.2600
      6 C6        -11.1493   -4.3063   57.7038 C.2     1  ZINC000052999724    0.6000
      7 O7        -10.2480   -5.1158   57.5873 O.2     1  ZINC000052999724   -0.5200
      8 N8        -11.0856   -3.3601   58.6615 N.am    1  ZINC000052999724   -0.6000
      9 C9         -9.9319   -3.2892   59.5684 C.3     1  ZINC000052999724    0.1100
     10 C10        -9.3560   -1.8704   59.5239 C.3     1  ZINC000052999724   -0.1400
     11 C11       -10.4652   -0.8639   59.8381 C.3     1  ZINC000052999724    0.1500
     12 N12        -9.9107    0.4921   59.8289 N.am    1  ZINC000052999724   -1.1100
     13 S13       -10.3879    1.5895   60.9736 S.o2    1  ZINC000052999724    2.7200
     14 O14        -9.5722    2.7388   60.7923 O.2     1  ZINC000052999724   -0.9500
     15 O15       -11.8076    1.6284   60.9250 O.2     1  ZINC000052999724   -0.9400
     16 C16        -9.9622    0.9204   62.5471 C.2     1  ZINC000052999724   -0.8000
     17 C17       -10.4249    1.3575   63.7193 C.2     1  ZINC000052999724    0.0100
     18 C18        -9.9492    0.6748   64.8254 C.2     1  ZINC000052999724   -0.1600
     19 C19        -9.1001   -0.3168   64.5515 C.2     1  ZINC000052999724   -0.1700
     20 S20        -8.8679   -0.4309   62.8118 S.3     1  ZINC000052999724    0.2100
     21 C21       -11.5679   -0.9711   58.7822 C.3     1  ZINC000052999724   -0.1500
     22 C22       -12.1658   -2.3760   58.8145 C.3     1  ZINC000052999724    0.1100
     23 S23       -13.6617   -5.4681   56.9495 S.3     1  ZINC000052999724    0.2100
     24 C24       -14.4095   -4.8090   55.5649 C.2     1  ZINC000052999724   -0.2400
     25 C25       -13.6718   -3.8195   55.0477 C.2     1  ZINC000052999724   -0.1300
     26 H26       -10.2263   -3.8681   54.2659 H       1  ZINC000052999724    0.0600
     27 H27       -11.4803   -3.1369   53.2358 H       1  ZINC000052999724    0.0600
     28 H28       -10.0670   -2.1767   53.7348 H       1  ZINC000052999724    0.0600
     29 H29       -10.8157   -2.3014   56.0953 H       1  ZINC000052999724    0.0800
     30 H30       -12.9991   -1.3862   54.1687 H       1  ZINC000052999724    0.0600
     31 H31       -12.8272   -0.8701   55.8636 H       1  ZINC000052999724    0.0600
     32 H32       -11.5858   -0.4260   54.6677 H       1  ZINC000052999724    0.0600
     33 H33       -10.2507   -3.5225   60.5842 H       1  ZINC000052999724    0.0800
     34 H34        -9.1717   -4.0023   59.2490 H       1  ZINC000052999724    0.0900
     35 H35        -8.5602   -1.7773   60.2628 H       1  ZINC000052999724    0.0900
     36 H36        -8.9552   -1.6715   58.5299 H       1  ZINC000052999724    0.0800
     37 H37       -10.8826   -1.0789   60.8218 H       1  ZINC000052999724    0.0900
     38 H38        -9.2641    0.7471   59.1524 H       1  ZINC000052999724    0.4200
     39 H39       -11.1180    2.1819   63.7992 H       1  ZINC000052999724    0.1600
     40 H40       -10.2429    0.9261   65.8338 H       1  ZINC000052999724    0.1500
     41 H41        -8.6299   -0.9545   65.2856 H       1  ZINC000052999724    0.1800
     42 H42       -12.3463   -0.2380   58.9935 H       1  ZINC000052999724    0.1000
     43 H43       -11.1462   -0.7806   57.7953 H       1  ZINC000052999724    0.0800
     44 H44       -12.8814   -2.4872   57.9997 H       1  ZINC000052999724    0.1000
     45 H45       -12.6673   -2.5378   59.7686 H       1  ZINC000052999724    0.0800
     46 H46       -15.3542   -5.1431   55.1619 H       1  ZINC000052999724    0.1700
     47 H47       -13.9726   -3.2722   54.1666 H       1  ZINC000052999724    0.1400
@<TRIPOS>BOND
     1     1     2    1
     2     1    26    1
     3     1    27    1
     4     1    28    1
     5     2     3    1
     6     2     4    1
     7     2    29    1
     8     3    30    1
     9     3    31    1
    10     3    32    1
    11     4    25    1
    12     4     5    2
    13     5     6    1
    14     5    23    1
    15     6     7    2
    16     6     8   am
    17     8    22    1
    18     8     9    1
    19     9    10    1
    20     9    33    1
    21     9    34    1
    22    10    11    1
    23    10    35    1
    24    10    36    1
    25    11    12    1
    26    11    21    1
    27    11    37    1
    28    12    13   am
    29    12    38    1
    30    13    14    2
    31    13    15    2
    32    13    16    1
    33    16    20    1
    34    16    17    2
    35    17    18    1
    36    17    39    1
    37    18    19    2
    38    18    40    1
    39    19    20    1
    40    19    41    1
    41    21    22    1
    42    21    42    1
    43    21    43    1
    44    22    44    1
    45    22    45    1
    46    23    24    1
    47    24    25    2
    48    24    46    1
    49    25    47    1
@<TRIPOS>SUBSTRUCTURE
     1 ZINC000052999724        1 TEMP              0 ****  ****    0 ROOT


##########                                Name:    ZINC000151850193
##########                DOCK_Rotatable_Bonds:                  11
##########                         Heavy_Atoms:                  23
##########                    Molecular_Weight:             328.452
##########                DOCK_Rotatable_Bonds:                  11
##########                       Formal_Charge:            0.039999
##########                     HBond_Acceptors:                   6
##########                        HBond_Donors:                   2
##########                         Heavy_Atoms:                  23
##########                          Grid_Score:          -35.336391
##########                     Grid_vdw_energy:          -33.957836
##########                      Grid_es_energy:           -1.378554
##########           Internal_energy_repulsive:           50.193859

@<TRIPOS>MOLECULE
ZINC000151850193
 55 55 1 0 0
SMALL
USER_CHARGES


@<TRIPOS>ATOM
      1 C1        -14.4377   -4.7135   57.2166 C.3     1  ZINC000151850193   -0.1500
      2 C2        -13.4835   -4.6723   56.0212 C.3     1  ZINC000151850193   -0.1000
      3 C3        -13.0454   -3.2284   55.7679 C.3     1  ZINC000151850193   -0.0800
      4 C4        -12.3871   -2.5843   56.9895 C.3     1  ZINC000151850193   -0.1000
      5 C5        -11.1197   -3.3599   57.3543 C.3     1  ZINC000151850193   -0.1500
      6 C6        -12.2454   -3.0467   54.4672 C.3     1  ZINC000151850193    0.1400
      7 H7        -11.7306   -3.9505   54.1413 H       1  ZINC000151850193    0.1000
      8 N8        -11.3763   -1.8674   54.4727 N.am    1  ZINC000151850193   -0.7000
      9 C9        -10.5463   -1.6371   53.4361 C.2     1  ZINC000151850193    0.5200
     10 O10       -10.5179   -2.4071   52.4994 O.2     1  ZINC000151850193   -0.5300
     11 C11        -9.6534   -0.4231   53.4410 C.3     1  ZINC000151850193   -0.1500
     12 C12        -8.4808   -0.6485   52.4845 C.3     1  ZINC000151850193    0.1500
     13 N13        -7.4314    0.3364   52.7578 N.am    1  ZINC000151850193   -0.7100
     14 C14        -6.5925    0.7178   51.7741 C.2     1  ZINC000151850193    0.6500
     15 O15        -6.7057    0.2436   50.6612 O.2     1  ZINC000151850193   -0.5600
     16 O16        -5.6290    1.6242   52.0250 O.3     1  ZINC000151850193   -0.3700
     17 C17        -4.8652    2.1060   50.8880 C.3     1  ZINC000151850193    0.1400
     18 C18        -3.8653    3.1647   51.3569 C.3     1  ZINC000151850193   -0.1800
     19 C19        -4.1099    0.9386   50.2494 C.3     1  ZINC000151850193   -0.1400
     20 C20        -5.8156    2.7222   49.8593 C.3     1  ZINC000151850193   -0.1800
     21 C21       -13.5932   -2.8177   53.7628 C.3     1  ZINC000151850193   -0.1700
     22 C22       -14.1375   -2.3571   55.1253 C.3     1  ZINC000151850193    0.0700
     23 H23       -15.1502   -2.7042   55.3309 H       1  ZINC000151850193    0.0800
     24 O24       -13.9711   -0.9582   55.3651 O.3     1  ZINC000151850193   -0.3700
     25 C25       -15.1948   -0.2594   55.6022 C.3     1  ZINC000151850193    0.0300
     26 H26       -13.9198   -4.3579   58.1073 H       1  ZINC000151850193    0.0600
     27 H27       -15.2979   -4.0744   57.0169 H       1  ZINC000151850193    0.0600
     28 H28       -14.7752   -5.7374   57.3769 H       1  ZINC000151850193    0.0600
     29 H29       -12.6079   -5.2857   56.2340 H       1  ZINC000151850193    0.0700
     30 H30       -13.9914   -5.0583   55.1374 H       1  ZINC000151850193    0.0700
     31 H31       -12.1272   -1.5509   56.7597 H       1  ZINC000151850193    0.0700
     32 H32       -13.0810   -2.6062   57.8299 H       1  ZINC000151850193    0.0700
     33 H33       -11.3875   -4.3730   57.6544 H       1  ZINC000151850193    0.0500
     34 H34       -10.4571   -3.4003   56.4897 H       1  ZINC000151850193    0.0500
     35 H35       -10.6117   -2.8591   58.1784 H       1  ZINC000151850193    0.0500
     36 H36       -11.3982   -1.2523   55.2224 H       1  ZINC000151850193    0.4100
     37 H37       -10.2233    0.4482   53.1180 H       1  ZINC000151850193    0.1000
     38 H38        -9.2733   -0.2556   54.4487 H       1  ZINC000151850193    0.1000
     39 H39        -8.0827   -1.6531   52.6281 H       1  ZINC000151850193    0.0800
     40 H40        -8.8243   -0.5375   51.4560 H       1  ZINC000151850193    0.0800
     41 H41        -7.3402    0.7141   53.6465 H       1  ZINC000151850193    0.4100
     42 H42        -3.1883    2.7258   52.0898 H       1  ZINC000151850193    0.0600
     43 H43        -3.2920    3.5264   50.5034 H       1  ZINC000151850193    0.0700
     44 H44        -4.4034    3.9964   51.8119 H       1  ZINC000151850193    0.0900
     45 H45        -4.8223    0.1843   49.9153 H       1  ZINC000151850193    0.0700
     46 H46        -3.5366    1.3002   49.3959 H       1  ZINC000151850193    0.0800
     47 H47        -3.4329    0.4996   50.9822 H       1  ZINC000151850193    0.0700
     48 H48        -6.3536    3.5537   50.3142 H       1  ZINC000151850193    0.0900
     49 H49        -5.2422    3.0838   49.0058 H       1  ZINC000151850193    0.0700
     50 H50        -6.5279    1.9678   49.5252 H       1  ZINC000151850193    0.0600
     51 H51       -13.5654   -2.0264   53.0137 H       1  ZINC000151850193    0.0800
     52 H52       -14.0550   -3.7340   53.3953 H       1  ZINC000151850193    0.1000
     53 H53       -15.8456   -0.3617   54.7338 H       1  ZINC000151850193    0.0400
     54 H54       -15.6892   -0.6793   56.4782 H       1  ZINC000151850193    0.0400
     55 H55       -14.9831    0.7957   55.7753 H       1  ZINC000151850193    0.0900
@<TRIPOS>BOND
     1     1     2    1
     2     1    26    1
     3     1    27    1
     4     1    28    1
     5     2     3    1
     6     2    29    1
     7     2    30    1
     8     3    22    1
     9     3     4    1
    10     3     6    1
    11     4     5    1
    12     4    31    1
    13     4    32    1
    14     5    33    1
    15     5    34    1
    16     5    35    1
    17     6     7    1
    18     6     8    1
    19     6    21    1
    20     8     9   am
    21     8    36    1
    22     9    10    2
    23     9    11    1
    24    11    12    1
    25    11    37    1
    26    11    38    1
    27    12    13    1
    28    12    39    1
    29    12    40    1
    30    13    14   am
    31    13    41    1
    32    14    15    2
    33    14    16    1
    34    16    17    1
    35    17    18    1
    36    17    19    1
    37    17    20    1
    38    18    42    1
    39    18    43    1
    40    18    44    1
    41    19    45    1
    42    19    46    1
    43    19    47    1
    44    20    48    1
    45    20    49    1
    46    20    50    1
    47    21    22    1
    48    21    51    1
    49    21    52    1
    50    22    23    1
    51    22    24    1
    52    24    25    1
    53    25    53    1
    54    25    54    1
    55    25    55    1
@<TRIPOS>SUBSTRUCTURE
     1 ZINC000151850193        1 TEMP              0 ****  ****    0 ROOT


##########                                Name:    ZINC000851838607
##########                DOCK_Rotatable_Bonds:                  12
##########                         Heavy_Atoms:                  23
##########                    Molecular_Weight:             352.495
##########                DOCK_Rotatable_Bonds:                  12
##########                       Formal_Charge:          0.00999896
##########                     HBond_Acceptors:                   8
##########                        HBond_Donors:                   2
##########                         Heavy_Atoms:                  23
##########                          Grid_Score:          -35.333618
##########                     Grid_vdw_energy:          -34.864662
##########                      Grid_es_energy:           -0.468954
##########           Internal_energy_repulsive:           25.506014

@<TRIPOS>MOLECULE
ZINC000851838607
 55 54 1 0 0
SMALL
USER_CHARGES


@<TRIPOS>ATOM
      1 C1         -2.8610    4.7335   52.2848 C.3     1  ZINC000851838607    0.0300
      2 O2         -3.0906    3.5298   51.5496 O.3     1  ZINC000851838607   -0.3800
      3 C3         -3.6761    3.7375   50.2627 C.3     1  ZINC000851838607    0.0800
      4 C4         -3.8923    2.3870   49.5768 C.3     1  ZINC000851838607   -0.6000
      5 H5         -4.2849    2.5481   48.5728 H       1  ZINC000851838607    0.1400
      6 C6         -2.5596    1.6403   49.4894 C.3     1  ZINC000851838607   -0.1400
      7 S7         -5.0749    1.4030   50.5380 S.o2    1  ZINC000851838607    2.6200
      8 O8         -5.4584    0.2403   49.8169 O.2     1  ZINC000851838607   -0.9400
      9 O9         -4.6671    1.3212   51.8967 O.2     1  ZINC000851838607   -0.9500
     10 N10        -6.4468    2.3297   50.5784 N.am    1  ZINC000851838607   -1.1200
     11 C11        -7.6369    1.8461   51.2824 C.3     1  ZINC000851838607    0.1100
     12 C12        -7.6533    2.4112   52.7041 C.3     1  ZINC000851838607   -0.1400
     13 C13        -8.9122    1.9314   53.4293 C.3     1  ZINC000851838607    0.1700
     14 H14        -9.7822    2.4528   53.0304 H       1  ZINC000851838607    0.1000
     15 N15        -9.0722    0.4892   53.2274 N.am    1  ZINC000851838607   -0.7100
     16 C16       -10.1205    0.0197   52.5223 C.2     1  ZINC000851838607    0.6500
     17 O17       -10.9321    0.7927   52.0528 O.2     1  ZINC000851838607   -0.5600
     18 O18       -10.2685   -1.3058   52.3381 O.3     1  ZINC000851838607   -0.3700
     19 C19       -11.4720   -1.9155   52.8748 C.3     1  ZINC000851838607    0.1400
     20 C20       -11.7848   -1.3080   54.2437 C.3     1  ZINC000851838607   -0.1800
     21 C21       -12.6421   -1.6581   51.9232 C.3     1  ZINC000851838607   -0.1400
     22 C22       -11.2575   -3.4231   53.0229 C.3     1  ZINC000851838607   -0.1800
     23 C23        -8.7826    2.2256   54.9251 C.3     1  ZINC000851838607   -0.1100
     24 C24        -9.0281    3.7150   55.1749 C.3     1  ZINC000851838607   -0.1500
     25 C25        -9.8144    1.4019   55.6982 C.3     1  ZINC000851838607   -0.1400
     26 H26        -2.1845    5.3785   51.7238 H       1  ZINC000851838607    0.0400
     27 H27        -3.8081    5.2496   52.4418 H       1  ZINC000851838607    0.0500
     28 H28        -2.4151    4.4907   53.2493 H       1  ZINC000851838607    0.0900
     29 H29        -4.6343    4.2443   50.3770 H       1  ZINC000851838607    0.0700
     30 H30        -3.0106    4.3510   49.6554 H       1  ZINC000851838607    0.0600
     31 H31        -2.7282    0.6425   49.0842 H       1  ZINC000851838607    0.0700
     32 H32        -1.8789    2.1872   48.8372 H       1  ZINC000851838607    0.0900
     33 H33        -2.1228    1.5591   50.4847 H       1  ZINC000851838607    0.0700
     34 H34        -6.4622    3.1928   50.1359 H       1  ZINC000851838607    0.4200
     35 H35        -8.5310    2.1726   50.7513 H       1  ZINC000851838607    0.0700
     36 H36        -7.6168    0.7571   51.3245 H       1  ZINC000851838607    0.0800
     37 H37        -6.7703    2.0664   53.2423 H       1  ZINC000851838607    0.0800
     38 H38        -7.6510    3.5004   52.6623 H       1  ZINC000851838607    0.1000
     39 H39        -8.4238   -0.1278   53.6011 H       1  ZINC000851838607    0.4100
     40 H40       -11.9377   -0.2339   54.1382 H       1  ZINC000851838607    0.0600
     41 H41       -12.6883   -1.7658   54.6465 H       1  ZINC000851838607    0.0700
     42 H42       -10.9513   -1.4914   54.9216 H       1  ZINC000851838607    0.0900
     43 H43       -12.4193   -2.0909   50.9478 H       1  ZINC000851838607    0.0700
     44 H44       -13.5456   -2.1158   52.3260 H       1  ZINC000851838607    0.0800
     45 H45       -12.7950   -0.5840   51.8176 H       1  ZINC000851838607    0.0700
     46 H46       -10.4239   -3.6067   53.7009 H       1  ZINC000851838607    0.0900
     47 H47       -12.1610   -3.8809   53.4257 H       1  ZINC000851838607    0.0700
     48 H48       -11.0346   -3.8560   52.0476 H       1  ZINC000851838607    0.0600
     49 H49        -7.7803    1.9611   55.2619 H       1  ZINC000851838607    0.0700
     50 H50       -10.0304    3.9795   54.8381 H       1  ZINC000851838607    0.0600
     51 H51        -8.9359    3.9246   56.2407 H       1  ZINC000851838607    0.0600
     52 H52        -8.2930    4.3018   54.6242 H       1  ZINC000851838607    0.0600
     53 H53        -9.6396    0.3409   55.5202 H       1  ZINC000851838607    0.0500
     54 H54        -9.7222    1.6116   56.7638 H       1  ZINC000851838607    0.0500
     55 H55       -10.8168    1.6665   55.3613 H       1  ZINC000851838607    0.0700
@<TRIPOS>BOND
     1     1     2    1
     2     1    26    1
     3     1    27    1
     4     1    28    1
     5     2     3    1
     6     3     4    1
     7     3    29    1
     8     3    30    1
     9     4     5    1
    10     4     6    1
    11     4     7    1
    12     6    31    1
    13     6    32    1
    14     6    33    1
    15     7     8    2
    16     7     9    2
    17     7    10   am
    18    10    11    1
    19    10    34    1
    20    11    12    1
    21    11    35    1
    22    11    36    1
    23    12    13    1
    24    12    37    1
    25    12    38    1
    26    13    14    1
    27    13    15    1
    28    13    23    1
    29    15    16   am
    30    15    39    1
    31    16    17    2
    32    16    18    1
    33    18    19    1
    34    19    20    1
    35    19    21    1
    36    19    22    1
    37    20    40    1
    38    20    41    1
    39    20    42    1
    40    21    43    1
    41    21    44    1
    42    21    45    1
    43    22    46    1
    44    22    47    1
    45    22    48    1
    46    23    24    1
    47    23    25    1
    48    23    49    1
    49    24    50    1
    50    24    51    1
    51    24    52    1
    52    25    53    1
    53    25    54    1
    54    25    55    1
@<TRIPOS>SUBSTRUCTURE
     1 ZINC000851838607        1 TEMP              0 ****  ****    0 ROOT


##########                                Name:    ZINC000898967786
##########                DOCK_Rotatable_Bonds:                   5
##########                         Heavy_Atoms:                  25
##########                    Molecular_Weight:             356.448
##########                DOCK_Rotatable_Bonds:                   5
##########                       Formal_Charge:        -2.38419e-07
##########                     HBond_Acceptors:                   7
##########                        HBond_Donors:                   1
##########                         Heavy_Atoms:                  25
##########                          Grid_Score:          -35.301071
##########                     Grid_vdw_energy:          -34.262241
##########                      Grid_es_energy:           -1.038830
##########           Internal_energy_repulsive:           10.675810

@<TRIPOS>MOLECULE
ZINC000898967786
 45 48 1 0 0
SMALL
USER_CHARGES


@<TRIPOS>ATOM
      1 C1         -2.8300    2.0409   49.5863 C.3     1  ZINC000898967786   -0.0800
      2 C2         -4.0799    1.4504   50.1864 C.2     1  ZINC000898967786    0.0900
      3 C3         -4.8525    2.0329   51.1294 C.2     1  ZINC000898967786   -0.1000
      4 C4         -4.6235    3.3788   51.7673 C.3     1  ZINC000898967786    0.2200
      5 N5         -3.8929    3.2050   53.0252 N.am    1  ZINC000898967786   -0.7400
      6 C6         -4.5235    3.3900   54.2020 C.2     1  ZINC000898967786    0.7100
      7 O7         -5.6988    3.7009   54.2195 O.2     1  ZINC000898967786   -0.5800
      8 N8         -3.8514    3.2301   55.3591 N.am    1  ZINC000898967786   -0.6300
      9 C9         -4.5185    3.4265   56.6559 C.3     1  ZINC000898967786    0.0900
     10 C10        -3.6609    4.3742   57.5022 C.3     1  ZINC000898967786    0.0500
     11 O11        -2.3194    3.8821   57.5465 O.3     1  ZINC000898967786   -0.3700
     12 C12        -1.6730    3.8293   56.2724 C.3     1  ZINC000898967786    0.1400
     13 H13        -1.6743    4.8219   55.8221 H       1  ZINC000898967786    0.0700
     14 C14        -0.2525    3.3579   56.4477 C.2     1  ZINC000898967786   -0.1100
     15 C15         0.1152    2.5395   57.4348 C.2     1  ZINC000898967786   -0.1800
     16 S16         1.8392    2.2114   57.3177 S.3     1  ZINC000898967786    0.1100
     17 C17         1.9675    3.2344   55.8927 C.2     1  ZINC000898967786   -0.2100
     18 C18         0.7686    3.7367   55.5933 C.2     1  ZINC000898967786   -0.1300
     19 C19        -2.4303    2.8482   55.3632 C.3     1  ZINC000898967786    0.0900
     20 N20        -5.8821    1.1721   51.3965 N.pl3   1  ZINC000898967786   -0.3500
     21 C21        -6.9445    1.2401   52.2507 C.2     1  ZINC000898967786    0.0600
     22 C22        -7.8353    0.2289   52.3212 C.2     1  ZINC000898967786   -0.1400
     23 C23        -7.6798   -0.9103   51.5142 C.2     1  ZINC000898967786   -0.1000
     24 C24        -6.6255   -0.9910   50.6585 C.2     1  ZINC000898967786   -0.0800
     25 C25        -5.7040    0.0736   50.5961 C.2     1  ZINC000898967786    0.2400
     26 N26        -4.6116    0.2672   49.8707 N.2     1  ZINC000898967786   -0.4900
     27 H27        -3.0924    2.6317   48.7087 H       1  ZINC000898967786    0.0800
     28 H28        -2.3408    2.6798   50.3215 H       1  ZINC000898967786    0.0700
     29 H29        -2.1528    1.2381   49.2947 H       1  ZINC000898967786    0.0800
     30 H30        -4.0411    4.0064   51.0926 H       1  ZINC000898967786    0.1000
     31 H31        -5.5837    3.8541   51.9676 H       1  ZINC000898967786    0.0700
     32 H32        -2.9552    2.9570   53.0112 H       1  ZINC000898967786    0.4000
     33 H33        -5.5041    3.8646   56.4991 H       1  ZINC000898967786    0.1100
     34 H34        -4.6190    2.4683   57.1658 H       1  ZINC000898967786    0.0800
     35 H35        -3.6693    5.3689   57.0564 H       1  ZINC000898967786    0.0600
     36 H36        -4.0638    4.4244   58.5138 H       1  ZINC000898967786    0.1100
     37 H37        -0.5447    2.1397   58.1906 H       1  ZINC000898967786    0.1700
     38 H38         2.8769    3.4232   55.3417 H       1  ZINC000898967786    0.1700
     39 H39         0.6083    4.3955   54.7528 H       1  ZINC000898967786    0.1400
     40 H40        -2.3184    1.8332   55.7446 H       1  ZINC000898967786    0.0800
     41 H41        -2.0334    2.9058   54.3497 H       1  ZINC000898967786    0.0900
     42 H42        -7.0731    2.1112   52.8761 H       1  ZINC000898967786    0.1600
     43 H43        -8.6716    0.2957   53.0015 H       1  ZINC000898967786    0.1500
     44 H44        -8.3938   -1.7185   51.5731 H       1  ZINC000898967786    0.1500
     45 H45        -6.4956   -1.8621   50.0335 H       1  ZINC000898967786    0.1500
@<TRIPOS>BOND
     1     1     2    1
     2     1    27    1
     3     1    28    1
     4     1    29    1
     5     2    26    1
     6     2     3    2
     7     3     4    1
     8     3    20    1
     9     4     5    1
    10     4    30    1
    11     4    31    1
    12     5     6   am
    13     5    32    1
    14     6     7    2
    15     6     8   am
    16     8    19    1
    17     8     9    1
    18     9    10    1
    19     9    33    1
    20     9    34    1
    21    10    11    1
    22    10    35    1
    23    10    36    1
    24    11    12    1
    25    12    13    1
    26    12    14    1
    27    12    19    1
    28    14    18    1
    29    14    15    2
    30    15    16    1
    31    15    37    1
    32    16    17    1
    33    17    18    2
    34    17    38    1
    35    18    39    1
    36    19    40    1
    37    19    41    1
    38    20    25    1
    39    20    21    1
    40    21    22    2
    41    21    42    1
    42    22    23    1
    43    22    43    1
    44    23    24    2
    45    23    44    1
    46    24    25    1
    47    24    45    1
    48    25    26    2
@<TRIPOS>SUBSTRUCTURE
     1 ZINC000898967786        1 TEMP              0 ****  ****    0 ROOT


##########                                Name:    ZINC000563265674
##########                DOCK_Rotatable_Bonds:                   7
##########                         Heavy_Atoms:                  25
##########                    Molecular_Weight:             386.859
##########                DOCK_Rotatable_Bonds:                   7
##########                       Formal_Charge:          0.00999963
##########                     HBond_Acceptors:                  10
##########                        HBond_Donors:                   2
##########                         Heavy_Atoms:                  25
##########                          Grid_Score:          -35.258160
##########                     Grid_vdw_energy:          -33.449265
##########                      Grid_es_energy:           -1.808895
##########           Internal_energy_repulsive:           14.785808

@<TRIPOS>MOLECULE
ZINC000563265674
 44 45 1 0 0
SMALL
USER_CHARGES


@<TRIPOS>ATOM
      1 C1        -12.0570   -3.9191   53.4371 C.3     1  ZINC000563265674   -0.0600
      2 C2        -11.3954   -2.5681   53.3485 C.2     1  ZINC000563265674    0.1700
      3 N3        -10.7399   -2.0982   52.3295 N.2     1  ZINC000563265674   -0.3800
      4 O4        -10.3302   -0.9826   52.5722 O.3     1  ZINC000563265674    0.0900
      5 C5        -10.6966   -0.6239   53.8063 C.2     1  ZINC000563265674    0.1900
      6 C6        -10.3884    0.6834   54.4898 C.3     1  ZINC000563265674    0.2100
      7 C7        -11.4847    1.6999   54.1642 C.3     1  ZINC000563265674   -0.1400
      8 C8        -10.3275    0.4660   56.0029 C.3     1  ZINC000563265674   -0.1800
      9 N9         -9.0939    1.1907   54.0154 N.3     1  ZINC000563265674   -0.6600
     10 C10        -9.2423    1.8974   52.7361 C.3     1  ZINC000563265674    0.0400
     11 C11        -7.8848    2.1008   52.1142 C.2     1  ZINC000563265674    0.5200
     12 O12        -7.6895    3.0465   51.3803 O.2     1  ZINC000563265674   -0.4900
     13 N13        -6.8878    1.2318   52.3734 N.am    1  ZINC000563265674   -0.6700
     14 C14        -5.6268    1.4208   51.7957 C.ar    1  ZINC000563265674    0.1400
     15 C15        -4.8061    2.4493   52.2379 C.ar    1  ZINC000563265674   -0.0300
     16 C16        -3.5619    2.6330   51.6662 C.ar    1  ZINC000563265674   -0.6400
     17 S17        -2.5198    3.9382   52.2275 S.o2    1  ZINC000563265674    2.5000
     18 C18        -2.5604    3.8038   54.0361 C.3     1  ZINC000563265674   -0.6500
     19 O19        -1.2328    3.5973   51.7310 O.2     1  ZINC000563265674   -0.9300
     20 O20        -3.1798    5.1219   51.8006 O.2     1  ZINC000563265674   -0.9300
     21 C21        -3.1332    1.7940   50.6544 C.ar    1  ZINC000563265674   -0.0300
     22 C22        -3.9480    0.7683   50.2106 C.ar    1  ZINC000563265674   -0.1100
     23 C23        -5.1913    0.5754   50.7820 C.ar    1  ZINC000563265674   -0.0200
     24 Cl24       -6.2134   -0.7125   50.2251 Cl      1  ZINC000563265674   -0.0500
     25 N25       -11.3796   -1.6249   54.3072 N.2     1  ZINC000563265674   -0.4700
     26 H26       -13.0840   -3.8449   53.0792 H       1  ZINC000563265674    0.0900
     27 H27       -11.5089   -4.6333   52.8226 H       1  ZINC000563265674    0.0900
     28 H28       -12.0570   -4.2564   54.4737 H       1  ZINC000563265674    0.0900
     29 H29       -12.4452    1.3235   54.5162 H       1  ZINC000563265674    0.0800
     30 H30       -11.2618    2.6454   54.6586 H       1  ZINC000563265674    0.0800
     31 H31       -11.5281    1.8547   53.0863 H       1  ZINC000563265674    0.0700
     32 H32        -9.5465   -0.2581   56.2348 H       1  ZINC000563265674    0.0700
     33 H33       -10.1046    1.4115   56.4972 H       1  ZINC000563265674    0.0800
     34 H34       -11.2880    0.0895   56.3549 H       1  ZINC000563265674    0.0800
     35 H35        -8.6621    1.7838   54.7081 H       1  ZINC000563265674    0.3600
     36 H36        -9.8647    1.3061   52.0645 H       1  ZINC000563265674    0.1200
     37 H37        -9.7119    2.8658   52.9083 H       1  ZINC000563265674    0.0800
     38 H38        -7.0439    0.4756   52.9603 H       1  ZINC000563265674    0.4200
     39 H39        -5.1401    3.1055   53.0280 H       1  ZINC000563265674    0.1700
     40 H40        -2.1849    2.8255   54.3363 H       1  ZINC000563265674    0.1300
     41 H41        -1.9350    4.5825   54.4725 H       1  ZINC000563265674    0.1400
     42 H42        -3.5858    3.9224   54.3864 H       1  ZINC000563265674    0.1400
     43 H43        -2.1602    1.9401   50.2093 H       1  ZINC000563265674    0.1500
     44 H44        -3.6103    0.1148   49.4198 H       1  ZINC000563265674    0.1500
@<TRIPOS>BOND
     1     1     2    1
     2     1    26    1
     3     1    27    1
     4     1    28    1
     5     2    25    1
     6     2     3    2
     7     3     4    1
     8     4     5    1
     9     5     6    1
    10     5    25    2
    11     6     7    1
    12     6     8    1
    13     6     9    1
    14     7    29    1
    15     7    30    1
    16     7    31    1
    17     8    32    1
    18     8    33    1
    19     8    34    1
    20     9    10    1
    21     9    35    1
    22    10    11    1
    23    10    36    1
    24    10    37    1
    25    11    12    2
    26    11    13   am
    27    13    14    1
    28    13    38    1
    29    14    23   ar
    30    14    15   ar
    31    15    16   ar
    32    15    39    1
    33    16    17    1
    34    16    21   ar
    35    17    18    1
    36    17    19    2
    37    17    20    2
    38    18    40    1
    39    18    41    1
    40    18    42    1
    41    21    22   ar
    42    21    43    1
    43    22    23   ar
    44    22    44    1
    45    23    24    1
@<TRIPOS>SUBSTRUCTURE
     1 ZINC000563265674        1 TEMP              0 ****  ****    0 ROOT


##########                                Name:    ZINC000942890482
##########                DOCK_Rotatable_Bonds:                   8
##########                         Heavy_Atoms:                  25
##########                    Molecular_Weight:             346.445
##########                DOCK_Rotatable_Bonds:                   8
##########                       Formal_Charge:          -0.0100004
##########                     HBond_Acceptors:                   5
##########                        HBond_Donors:                   0
##########                         Heavy_Atoms:                  25
##########                          Grid_Score:          -35.255142
##########                     Grid_vdw_energy:          -33.666508
##########                      Grid_es_energy:           -1.588633
##########           Internal_energy_repulsive:           29.892677

@<TRIPOS>MOLECULE
ZINC000942890482
 52 54 1 0 0
SMALL
USER_CHARGES


@<TRIPOS>ATOM
      1 C1         -4.5311    4.4050   52.9502 C.3     1  ZINC000942890482   -0.1700
      2 C2         -4.7855    2.9494   52.5533 C.3     1  ZINC000942890482    0.1000
      3 N3         -4.8267    2.8415   51.0929 N.am    1  ZINC000942890482   -0.6000
      4 C4         -6.0034    2.6498   50.4642 C.2     1  ZINC000942890482    0.5700
      5 O5         -6.0375    2.5604   49.2523 O.2     1  ZINC000942890482   -0.5100
      6 C6         -7.2515    2.5485   51.2477 C.ar    1  ZINC000942890482   -0.1400
      7 C7         -8.0339    3.6837   51.4692 C.ar    1  ZINC000942890482   -0.0600
      8 C8         -9.1981    3.5834   52.2007 C.ar    1  ZINC000942890482   -0.1600
      9 C9         -9.5924    2.3584   52.7162 C.ar    1  ZINC000942890482    0.1300
     10 F10       -10.7342    2.2655   53.4325 F       1  ZINC000942890482   -0.1300
     11 C11        -8.8193    1.2277   52.4989 C.ar    1  ZINC000942890482   -0.1600
     12 C12        -7.6562    1.3158   51.7649 C.ar    1  ZINC000942890482   -0.0100
     13 C13        -6.8172    0.0864   51.5294 C.3     1  ZINC000942890482   -0.1200
     14 C14        -3.5888    2.9420   50.3158 C.3     1  ZINC000942890482    0.1400
     15 H15        -3.5262    3.9042   49.8075 H       1  ZINC000942890482    0.1100
     16 C16        -3.4699    1.7706   49.3053 C.3     1  ZINC000942890482   -0.1500
     17 C17        -1.9448    1.6337   49.1128 C.3     1  ZINC000942890482    0.1100
     18 N18        -1.3007    2.2306   50.2920 N.am    1  ZINC000942890482   -0.6200
     19 C19         0.0279    2.3282   50.4962 C.2     1  ZINC000942890482    0.5300
     20 O20         0.4494    2.8415   51.5110 O.2     1  ZINC000942890482   -0.5400
     21 C21         0.9899    1.7998   49.4634 C.3     1  ZINC000942890482   -0.1300
     22 C22         1.3011    2.8997   48.4464 C.3     1  ZINC000942890482   -0.0700
     23 C23         2.3240    2.3826   47.4330 C.3     1  ZINC000942890482   -0.1600
     24 C24         3.5670    3.2393   47.1840 C.3     1  ZINC000942890482   -0.1800
     25 C25         3.6840    1.9314   47.9694 C.3     1  ZINC000942890482   -0.1800
     26 C26        -2.3487    2.7066   51.2138 C.3     1  ZINC000942890482    0.0900
     27 H27        -3.5787    4.7338   52.5346 H       1  ZINC000942890482    0.0600
     28 H28        -5.3331    5.0329   52.5619 H       1  ZINC000942890482    0.0600
     29 H29        -4.5006    4.4852   54.0368 H       1  ZINC000942890482    0.0700
     30 H30        -3.9836    2.3215   52.9416 H       1  ZINC000942890482    0.0900
     31 H31        -5.7380    2.6206   52.9689 H       1  ZINC000942890482    0.0900
     32 H32        -7.7274    4.6385   51.0683 H       1  ZINC000942890482    0.1400
     33 H33        -9.8038    4.4608   52.3730 H       1  ZINC000942890482    0.1400
     34 H34        -9.1312    0.2758   52.9027 H       1  ZINC000942890482    0.1400
     35 H35        -7.1887   -0.4447   50.6531 H       1  ZINC000942890482    0.0900
     36 H36        -5.7806    0.3801   51.3640 H       1  ZINC000942890482    0.0700
     37 H37        -6.8754   -0.5656   52.4011 H       1  ZINC000942890482    0.0700
     38 H38        -3.8893    0.8559   49.7243 H       1  ZINC000942890482    0.1000
     39 H39        -3.9564    2.0230   48.3632 H       1  ZINC000942890482    0.0900
     40 H40        -1.6739    0.5808   49.0356 H       1  ZINC000942890482    0.0700
     41 H41        -1.6357    2.1652   48.2127 H       1  ZINC000942890482    0.0700
     42 H42         1.9119    1.4859   49.9527 H       1  ZINC000942890482    0.0900
     43 H43         0.5418    0.9480   48.9518 H       1  ZINC000942890482    0.0900
     44 H44         0.3860    3.1833   47.9265 H       1  ZINC000942890482    0.0700
     45 H45         1.7091    3.7680   48.9637 H       1  ZINC000942890482    0.0700
     46 H46         1.9109    1.8362   46.5850 H       1  ZINC000942890482    0.1000
     47 H47         3.9719    3.2567   46.1722 H       1  ZINC000942890482    0.0900
     48 H48         3.6560    4.1712   47.7423 H       1  ZINC000942890482    0.0900
     49 H49         3.8500    2.0030   49.0443 H       1  ZINC000942890482    0.0900
     50 H50         4.1658    1.0884   47.4742 H       1  ZINC000942890482    0.0900
     51 H51        -2.0412    3.6378   51.6895 H       1  ZINC000942890482    0.0800
     52 H52        -2.5649    1.9484   51.9665 H       1  ZINC000942890482    0.0900
@<TRIPOS>BOND
     1     1     2    1
     2     1    27    1
     3     1    28    1
     4     1    29    1
     5     2     3    1
     6     2    30    1
     7     2    31    1
     8     3     4   am
     9     3    14    1
    10     4     5    2
    11     4     6    1
    12     6    12   ar
    13     6     7   ar
    14     7     8   ar
    15     7    32    1
    16     8     9   ar
    17     8    33    1
    18     9    10    1
    19     9    11   ar
    20    11    12   ar
    21    11    34    1
    22    12    13    1
    23    13    35    1
    24    13    36    1
    25    13    37    1
    26    14    15    1
    27    14    26    1
    28    14    16    1
    29    16    17    1
    30    16    38    1
    31    16    39    1
    32    17    18    1
    33    17    40    1
    34    17    41    1
    35    18    19   am
    36    18    26    1
    37    19    20    2
    38    19    21    1
    39    21    22    1
    40    21    42    1
    41    21    43    1
    42    22    23    1
    43    22    44    1
    44    22    45    1
    45    23    25    1
    46    23    24    1
    47    23    46    1
    48    24    25    1
    49    24    47    1
    50    24    48    1
    51    25    49    1
    52    25    50    1
    53    26    51    1
    54    26    52    1
@<TRIPOS>SUBSTRUCTURE
     1 ZINC000942890482        1 TEMP              0 ****  ****    0 ROOT


##########                                Name:    ZINC001386869844
##########                DOCK_Rotatable_Bonds:                   9
##########                         Heavy_Atoms:                  25
##########                    Molecular_Weight:             345.485
##########                DOCK_Rotatable_Bonds:                   9
##########                       Formal_Charge:          -0.0300003
##########                     HBond_Acceptors:                   5
##########                        HBond_Donors:                   2
##########                         Heavy_Atoms:                  25
##########                          Grid_Score:          -35.248543
##########                     Grid_vdw_energy:          -32.721218
##########                      Grid_es_energy:           -2.527323
##########           Internal_energy_repulsive:           29.368465

@<TRIPOS>MOLECULE
ZINC001386869844
 56 58 1 0 0
SMALL
USER_CHARGES


@<TRIPOS>ATOM
      1 C1         -5.9061    0.4499   50.3930 C.3     1  ZINC001386869844    0.0600
      2 N2         -5.3793    1.8081   50.2378 N.am    1  ZINC001386869844   -0.6200
      3 C3         -4.1981    2.0447   49.4042 C.3     1  ZINC001386869844    0.1100
      4 C4         -3.0676    1.1129   49.8453 C.3     1  ZINC001386869844    0.1000
      5 N5         -1.8097    1.5474   49.2329 N.am    1  ZINC001386869844   -0.7300
      6 C6         -1.0762    2.5168   49.8152 C.2     1  ZINC001386869844    0.5200
      7 O7         -1.4602    3.0328   50.8433 O.2     1  ZINC001386869844   -0.5300
      8 C8          0.2178    2.9638   49.1852 C.3     1  ZINC001386869844   -0.1300
      9 C9          1.3942    2.3465   49.9439 C.3     1  ZINC001386869844   -0.0100
     10 C10         1.5447    3.0370   51.3008 C.3     1  ZINC001386869844   -0.1500
     11 C11         1.1365    0.8535   50.1572 C.3     1  ZINC001386869844   -0.1600
     12 C12         2.6780    2.5315   49.1322 C.3     1  ZINC001386869844   -0.1500
     13 C13         2.6283    3.4897   47.9404 C.3     1  ZINC001386869844   -0.1900
     14 C14         2.6976    1.9786   47.7057 C.3     1  ZINC001386869844   -0.1800
     15 C15        -5.9812    2.8398   50.8621 C.2     1  ZINC001386869844    0.5900
     16 O16        -5.5435    3.9679   50.7333 O.2     1  ZINC001386869844   -0.5200
     17 C17        -7.1639    2.6028   51.6967 C.2     1  ZINC001386869844   -0.0600
     18 C18        -8.4330    3.0976   51.4719 C.2     1  ZINC001386869844   -0.0900
     19 C19        -9.2414    2.6274   52.5036 C.2     1  ZINC001386869844   -0.1700
     20 C20        -8.4722    1.8682   53.3285 C.2     1  ZINC001386869844    0.0500
     21 C21        -8.9922    1.1843   54.5705 C.3     1  ZINC001386869844   -0.0600
     22 C22       -10.3377    1.8173   54.9444 C.3     1  ZINC001386869844   -0.1100
     23 C23       -11.2468    1.8516   53.7129 C.3     1  ZINC001386869844   -0.1200
     24 C24       -10.7130    2.8840   52.7125 C.3     1  ZINC001386869844   -0.0500
     25 N25        -7.2112    1.8408   52.8438 N.pl3   1  ZINC001386869844   -0.5400
     26 H26        -5.5160    0.0116   51.3116 H       1  ZINC001386869844    0.0600
     27 H27        -6.9945    0.4857   50.4412 H       1  ZINC001386869844    0.0800
     28 H28        -5.6000   -0.1581   49.5417 H       1  ZINC001386869844    0.0900
     29 H29        -3.8782    3.0810   49.5132 H       1  ZINC001386869844    0.1000
     30 H30        -4.4446    1.8483   48.3608 H       1  ZINC001386869844    0.0900
     31 H31        -3.2924    0.0941   49.5296 H       1  ZINC001386869844    0.0700
     32 H32        -2.9733    1.1445   50.9307 H       1  ZINC001386869844    0.0700
     33 H33        -1.5046    1.1376   48.4084 H       1  ZINC001386869844    0.4000
     34 H34         0.2463    2.6399   48.1449 H       1  ZINC001386869844    0.0900
     35 H35         0.2871    4.0506   49.2294 H       1  ZINC001386869844    0.0900
     36 H36         0.6302    2.9052   51.8790 H       1  ZINC001386869844    0.0800
     37 H37         2.3830    2.5972   51.8414 H       1  ZINC001386869844    0.0500
     38 H38         1.7284    4.1007   51.1489 H       1  ZINC001386869844    0.0500
     39 H39         1.0293    0.3615   49.1906 H       1  ZINC001386869844    0.0500
     40 H40         1.9747    0.4137   50.6977 H       1  ZINC001386869844    0.0500
     41 H41         0.2220    0.7216   50.7354 H       1  ZINC001386869844    0.0800
     42 H42         3.6056    2.4855   49.7026 H       1  ZINC001386869844    0.1000
     43 H43         1.6811    3.9882   47.7346 H       1  ZINC001386869844    0.1000
     44 H44         3.5234    4.0738   47.7266 H       1  ZINC001386869844    0.0900
     45 H45         3.6384    1.5693   47.3376 H       1  ZINC001386869844    0.0900
     46 H46         1.7962    1.4830   47.3455 H       1  ZINC001386869844    0.0900
     47 H47        -8.7403    3.7298   50.6520 H       1  ZINC001386869844    0.1500
     48 H48        -9.1289    0.1209   54.3740 H       1  ZINC001386869844    0.0800
     49 H49        -8.2835    1.3190   55.3877 H       1  ZINC001386869844    0.0800
     50 H50       -10.8111    1.2271   55.7290 H       1  ZINC001386869844    0.0700
     51 H51       -10.1738    2.8333   55.3032 H       1  ZINC001386869844    0.0700
     52 H52       -11.2628    0.8670   53.2455 H       1  ZINC001386869844    0.0600
     53 H53       -12.2573    2.1268   54.0149 H       1  ZINC001386869844    0.0700
     54 H54       -10.8577    3.8888   53.1095 H       1  ZINC001386869844    0.0700
     55 H55       -11.2414    2.7838   51.7644 H       1  ZINC001386869844    0.0700
     56 H56        -6.4634    1.3658   53.2389 H       1  ZINC001386869844    0.4200
@<TRIPOS>BOND
     1     1     2    1
     2     1    26    1
     3     1    27    1
     4     1    28    1
     5     2     3    1
     6     2    15   am
     7     3     4    1
     8     3    29    1
     9     3    30    1
    10     4     5    1
    11     4    31    1
    12     4    32    1
    13     5     6   am
    14     5    33    1
    15     6     7    2
    16     6     8    1
    17     8     9    1
    18     8    34    1
    19     8    35    1
    20     9    10    1
    21     9    11    1
    22     9    12    1
    23    10    36    1
    24    10    37    1
    25    10    38    1
    26    11    39    1
    27    11    40    1
    28    11    41    1
    29    12    14    1
    30    12    13    1
    31    12    42    1
    32    13    14    1
    33    13    43    1
    34    13    44    1
    35    14    45    1
    36    14    46    1
    37    15    16    2
    38    15    17    1
    39    17    25    1
    40    17    18    2
    41    18    19    1
    42    18    47    1
    43    19    24    1
    44    19    20    2
    45    20    21    1
    46    20    25    1
    47    21    22    1
    48    21    48    1
    49    21    49    1
    50    22    23    1
    51    22    50    1
    52    22    51    1
    53    23    24    1
    54    23    52    1
    55    23    53    1
    56    24    54    1
    57    24    55    1
    58    25    56    1
@<TRIPOS>SUBSTRUCTURE
     1 ZINC001386869844        1 TEMP              0 ****  ****    0 ROOT


##########                                Name:    ZINC000433533595
##########                DOCK_Rotatable_Bonds:                  10
##########                         Heavy_Atoms:                  24
##########                    Molecular_Weight:             397.312
##########                DOCK_Rotatable_Bonds:                  10
##########                       Formal_Charge:          0.00999916
##########                     HBond_Acceptors:                   5
##########                        HBond_Donors:                   1
##########                         Heavy_Atoms:                  24
##########                          Grid_Score:          -35.246643
##########                     Grid_vdw_energy:          -34.899082
##########                      Grid_es_energy:           -0.347559
##########           Internal_energy_repulsive:           20.696918

@<TRIPOS>MOLECULE
ZINC000433533595
 49 50 1 0 0
SMALL
USER_CHARGES


@<TRIPOS>ATOM
      1 C1         -4.3647    0.8914   50.1403 C.3     1  ZINC000433533595   -0.1500
      2 C2         -5.4029    2.0132   50.0729 C.3     1  ZINC000433533595   -0.1200
      3 C3         -6.7731    1.4650   50.4767 C.3     1  ZINC000433533595   -0.1300
      4 C4         -6.6923    0.8785   51.8874 C.3     1  ZINC000433533595    0.1000
      5 N5         -8.0361    0.5130   52.3421 N.am    1  ZINC000433533595   -0.5500
      6 C6         -8.3820   -0.7853   52.4476 C.2     1  ZINC000433533595    0.5100
      7 O7         -7.5801   -1.6517   52.1660 O.2     1  ZINC000433533595   -0.5100
      8 C8         -9.7518   -1.1579   52.9111 C.2     1  ZINC000433533595    0.5000
      9 O9        -10.0985   -0.9038   54.0464 O.2     1  ZINC000433533595   -0.4900
     10 N10       -10.6032   -1.7762   52.0690 N.am    1  ZINC000433533595   -0.6300
     11 C11       -11.8863   -2.1252   52.5031 C.ar    1  ZINC000433533595    0.1200
     12 C12       -12.0465   -3.0132   53.5572 C.ar    1  ZINC000433533595   -0.0600
     13 C13       -13.3162   -3.3564   53.9843 C.ar    1  ZINC000433533595   -0.1100
     14 Br14      -13.5330   -4.5663   55.4213 Br      1  ZINC000433533595   -0.0400
     15 C15       -14.4280   -2.8163   53.3631 C.ar    1  ZINC000433533595   -0.0600
     16 C16       -14.2757   -1.9308   52.3120 C.ar    1  ZINC000433533595   -0.1900
     17 C17       -13.0075   -1.5773   51.8818 C.ar    1  ZINC000433533595    0.1300
     18 O18       -12.8566   -0.7065   50.8483 O.3     1  ZINC000433533595   -0.3100
     19 C19       -13.5963    0.5143   50.9153 C.3     1  ZINC000433533595    0.0800
     20 C20       -12.6353    1.6803   51.1551 C.3     1  ZINC000433533595   -0.1500
     21 C21       -14.3427    0.7313   49.5975 C.3     1  ZINC000433533595   -0.1800
     22 C22        -9.0040    1.5589   52.6820 C.3     1  ZINC000433533595    0.0600
     23 C23        -9.1385    1.9447   54.1564 C.3     1  ZINC000433533595   -0.1900
     24 C24        -8.4528    2.8980   53.1758 C.3     1  ZINC000433533595   -0.1800
     25 H25        -4.6506    0.0902   49.4589 H       1  ZINC000433533595    0.0500
     26 H26        -3.3886    1.2820   49.8526 H       1  ZINC000433533595    0.0500
     27 H27        -4.3152    0.5030   51.1576 H       1  ZINC000433533595    0.0500
     28 H28        -5.1170    2.8144   50.7543 H       1  ZINC000433533595    0.0700
     29 H29        -5.4524    2.4017   49.0556 H       1  ZINC000433533595    0.0600
     30 H30        -7.5063    2.2714   50.4599 H       1  ZINC000433533595    0.0600
     31 H31        -7.0737    0.6861   49.7760 H       1  ZINC000433533595    0.0700
     32 H32        -6.0587   -0.0085   51.8764 H       1  ZINC000433533595    0.1100
     33 H33        -6.2683    1.6193   52.5652 H       1  ZINC000433533595    0.0800
     34 H34       -10.3262   -1.9794   51.1619 H       1  ZINC000433533595    0.4300
     35 H35       -11.1801   -3.4364   54.0436 H       1  ZINC000433533595    0.1600
     36 H36       -15.4178   -3.0875   53.6997 H       1  ZINC000433533595    0.1400
     37 H37       -15.1460   -1.5111   51.8294 H       1  ZINC000433533595    0.1500
     38 H38       -14.3135    0.4601   51.7344 H       1  ZINC000433533595    0.0800
     39 H39       -11.9182    1.7345   50.3361 H       1  ZINC000433533595    0.0700
     40 H40       -13.1995    2.6116   51.2062 H       1  ZINC000433533595    0.0800
     41 H41       -12.1035    1.5258   52.0940 H       1  ZINC000433533595    0.0700
     42 H42       -13.6255    0.7854   48.7784 H       1  ZINC000433533595    0.0700
     43 H43       -15.0274   -0.0995   49.4266 H       1  ZINC000433533595    0.0600
     44 H44       -14.9069    1.6625   49.6486 H       1  ZINC000433533595    0.0800
     45 H45        -9.9067    1.5806   52.0714 H       1  ZINC000433533595    0.1400
     46 H46       -10.1299    2.2200   54.5162 H       1  ZINC000433533595    0.0900
     47 H47        -8.5069    1.4203   54.8735 H       1  ZINC000433533595    0.1400
     48 H48        -7.3700    3.0008   53.2477 H       1  ZINC000433533595    0.1000
     49 H49        -8.9930    3.8007   52.8903 H       1  ZINC000433533595    0.1000
@<TRIPOS>BOND
     1     1     2    1
     2     1    25    1
     3     1    26    1
     4     1    27    1
     5     2     3    1
     6     2    28    1
     7     2    29    1
     8     3     4    1
     9     3    30    1
    10     3    31    1
    11     4     5    1
    12     4    32    1
    13     4    33    1
    14     5     6   am
    15     5    22    1
    16     6     7    2
    17     6     8    1
    18     8     9    2
    19     8    10   am
    20    10    11    1
    21    10    34    1
    22    11    17   ar
    23    11    12   ar
    24    12    13   ar
    25    12    35    1
    26    13    14    1
    27    13    15   ar
    28    15    16   ar
    29    15    36    1
    30    16    17   ar
    31    16    37    1
    32    17    18    1
    33    18    19    1
    34    19    20    1
    35    19    21    1
    36    19    38    1
    37    20    39    1
    38    20    40    1
    39    20    41    1
    40    21    42    1
    41    21    43    1
    42    21    44    1
    43    22    24    1
    44    22    23    1
    45    22    45    1
    46    23    24    1
    47    23    46    1
    48    23    47    1
    49    24    48    1
    50    24    49    1
@<TRIPOS>SUBSTRUCTURE
     1 ZINC000433533595        1 TEMP              0 ****  ****    0 ROOT


##########                                Name:    ZINC000542980334
##########                DOCK_Rotatable_Bonds:                   6
##########                         Heavy_Atoms:                  27
##########                    Molecular_Weight:             404.795
##########                DOCK_Rotatable_Bonds:                   6
##########                       Formal_Charge:           0.0300001
##########                     HBond_Acceptors:                  10
##########                        HBond_Donors:                   1
##########                         Heavy_Atoms:                  27
##########                          Grid_Score:          -35.237026
##########                     Grid_vdw_energy:          -32.514725
##########                      Grid_es_energy:           -2.722300
##########           Internal_energy_repulsive:           12.134604

@<TRIPOS>MOLECULE
ZINC000542980334
 44 46 1 0 0
SMALL
USER_CHARGES


@<TRIPOS>ATOM
      1 O1         -3.8977    1.2994   49.4164 O.2     1  ZINC000542980334   -0.5800
      2 C2         -3.9123    2.0045   50.4068 C.2     1  ZINC000542980334    0.7100
      3 N3         -5.0840    2.4596   50.8929 N.am    1  ZINC000542980334   -0.7400
      4 C4         -6.3398    2.1097   50.2244 C.3     1  ZINC000542980334    0.1800
      5 C5         -7.2188    1.3410   51.1770 C.ar    1  ZINC000542980334   -0.1400
      6 C6         -7.1575   -0.0413   51.2135 C.ar    1  ZINC000542980334    0.1300
      7 F7         -6.3096   -0.7021   50.3952 F       1  ZINC000542980334   -0.1200
      8 C8         -7.9654   -0.7465   52.0897 C.ar    1  ZINC000542980334   -0.1500
      9 C9         -8.8322   -0.0702   52.9269 C.ar    1  ZINC000542980334   -0.0700
     10 C10        -8.8935    1.3103   52.8904 C.ar    1  ZINC000542980334   -0.1200
     11 C11        -8.0833    2.0168   52.0195 C.ar    1  ZINC000542980334    0.0100
     12 Cl12       -8.1605    3.7504   51.9749 Cl      1  ZINC000542980334   -0.0400
     13 N13        -2.7570    2.3263   51.0218 N.am    1  ZINC000542980334   -0.6300
     14 C14        -2.7589    3.1724   52.2230 C.3     1  ZINC000542980334    0.1100
     15 C15        -1.8095    4.3530   51.9959 C.3     1  ZINC000542980334   -0.1300
     16 C16        -0.4287    3.8236   51.6021 C.3     1  ZINC000542980334   -0.1300
     17 C17        -0.5370    3.0328   50.2964 C.3     1  ZINC000542980334    0.1400
     18 H18        -0.9380    3.6765   49.5134 H       1  ZINC000542980334    0.1100
     19 N19         0.7906    2.5538   49.9034 N.pl3   1  ZINC000542980334   -0.3400
     20 C20         1.1992    2.2914   48.6442 C.2     1  ZINC000542980334    0.0600
     21 C21         2.4844    1.8724   48.7066 C.2     1  ZINC000542980334   -0.2300
     22 C22         2.8745    1.8790   50.0498 C.2     1  ZINC000542980334   -0.0200
     23 C23         4.2294    1.4842   50.5783 C.3     1  ZINC000542980334    0.5600
     24 F24         4.2142    0.1318   50.9362 F       1  ZINC000542980334   -0.1700
     25 F25         5.1954    1.6937   49.5883 F       1  ZINC000542980334   -0.1700
     26 F26         4.5364    2.2602   51.7011 F       1  ZINC000542980334   -0.1600
     27 N27         1.8619    2.2931   50.7674 N.2     1  ZINC000542980334   -0.2300
     28 C28        -1.4723    1.8327   50.5075 C.3     1  ZINC000542980334    0.1300
     29 H29        -5.0959    3.0190   51.6853 H       1  ZINC000542980334    0.4000
     30 H30        -6.8513    3.0203   49.9125 H       1  ZINC000542980334    0.0900
     31 H31        -6.1269    1.4949   49.3499 H       1  ZINC000542980334    0.0900
     32 H32        -7.9184   -1.8251   52.1185 H       1  ZINC000542980334    0.1500
     33 H33        -9.4623   -0.6206   53.6098 H       1  ZINC000542980334    0.1500
     34 H34        -9.5714    1.8380   53.5448 H       1  ZINC000542980334    0.1500
     35 H35        -3.7670    3.5442   52.4065 H       1  ZINC000542980334    0.0800
     36 H36        -2.4200    2.5908   53.0803 H       1  ZINC000542980334    0.0800
     37 H37        -2.1986    4.9843   51.1969 H       1  ZINC000542980334    0.0800
     38 H38        -1.7277    4.9358   52.9133 H       1  ZINC000542980334    0.0900
     39 H39         0.2554    4.6610   51.4639 H       1  ZINC000542980334    0.0800
     40 H40        -0.0509    3.1727   52.3906 H       1  ZINC000542980334    0.0800
     41 H41         0.6066    2.3965   47.7475 H       1  ZINC000542980334    0.1900
     42 H42         3.0999    1.5834   47.8676 H       1  ZINC000542980334    0.1600
     43 H43        -1.0262    1.1433   51.2244 H       1  ZINC000542980334    0.0800
     44 H44        -1.6322    1.3224   49.5576 H       1  ZINC000542980334    0.1100
@<TRIPOS>BOND
     1     1     2    2
     2     2     3   am
     3     2    13   am
     4     3     4    1
     5     3    29    1
     6     4     5    1
     7     4    30    1
     8     4    31    1
     9     5    11   ar
    10     5     6   ar
    11     6     7    1
    12     6     8   ar
    13     8     9   ar
    14     8    32    1
    15     9    10   ar
    16     9    33    1
    17    10    11   ar
    18    10    34    1
    19    11    12    1
    20    13    28    1
    21    13    14    1
    22    14    15    1
    23    14    35    1
    24    14    36    1
    25    15    16    1
    26    15    37    1
    27    15    38    1
    28    16    17    1
    29    16    39    1
    30    16    40    1
    31    17    18    1
    32    17    19    1
    33    17    28    1
    34    19    27    1
    35    19    20    1
    36    20    21    2
    37    20    41    1
    38    21    22    1
    39    21    42    1
    40    22    23    1
    41    22    27    2
    42    23    24    1
    43    23    25    1
    44    23    26    1
    45    28    43    1
    46    28    44    1
@<TRIPOS>SUBSTRUCTURE
     1 ZINC000542980334        1 TEMP              0 ****  ****    0 ROOT


##########                                Name:    ZINC000535362552
##########                DOCK_Rotatable_Bonds:                   5
##########                         Heavy_Atoms:                  26
##########                    Molecular_Weight:             416.228
##########                DOCK_Rotatable_Bonds:                   5
##########                       Formal_Charge:         -0.00999981
##########                     HBond_Acceptors:                   6
##########                        HBond_Donors:                   1
##########                         Heavy_Atoms:                  26
##########                          Grid_Score:          -35.228504
##########                     Grid_vdw_energy:          -36.018108
##########                      Grid_es_energy:            0.789604
##########           Internal_energy_repulsive:            6.793147

@<TRIPOS>MOLECULE
ZINC000535362552
 40 43 1 0 0
SMALL
USER_CHARGES


@<TRIPOS>ATOM
      1 C1         -2.7734    1.3629   49.4428 C.3     1  ZINC000535362552    0.0300
      2 O2         -4.0711    0.9699   49.9621 O.3     1  ZINC000535362552   -0.3400
      3 C3         -4.9050    1.9603   50.3396 C.2     1  ZINC000535362552    0.5500
      4 O4         -4.6122    3.1193   50.1175 O.2     1  ZINC000535362552   -0.4800
      5 C5         -6.1661    1.6391   51.0188 C.2     1  ZINC000535362552   -0.0100
      6 C6         -6.5602    0.3919   51.3876 C.2     1  ZINC000535362552   -0.0900
      7 C7         -7.8666    0.5517   52.0250 C.ar    1  ZINC000535362552   -0.1300
      8 C8         -8.7791   -0.3319   52.6058 C.ar    1  ZINC000535362552   -0.0600
      9 C9         -9.9590    0.1571   53.1346 C.ar    1  ZINC000535362552    0.1200
     10 N10       -10.8800   -0.7220   53.7195 N.am    1  ZINC000535362552   -0.6700
     11 C11       -11.1074   -0.6744   55.0471 C.2     1  ZINC000535362552    0.5200
     12 O12       -10.5149    0.1295   55.7355 O.2     1  ZINC000535362552   -0.5000
     13 C13       -12.0979   -1.6199   55.6762 C.3     1  ZINC000535362552   -0.1000
     14 H14       -12.9372   -1.0727   56.1057 H       1  ZINC000535362552    0.1300
     15 C15       -12.5888   -2.6692   54.6509 C.3     1  ZINC000535362552    0.0600
     16 O16       -12.7208   -3.8573   55.4495 O.3     1  ZINC000535362552   -0.2900
     17 C17       -11.8478   -3.7959   56.4925 C.ar    1  ZINC000535362552    0.1300
     18 C18       -11.3571   -4.8129   57.3072 C.ar    1  ZINC000535362552   -0.1300
     19 C19       -10.4744   -4.5220   58.3268 C.ar    1  ZINC000535362552   -0.0500
     20 C20       -10.0693   -3.2182   58.5495 C.ar    1  ZINC000535362552   -0.1200
     21 Br21       -8.8635   -2.8255   59.9523 Br      1  ZINC000535362552   -0.0400
     22 C22       -10.5498   -2.2019   57.7411 C.ar    1  ZINC000535362552   -0.0100
     23 C23       -11.4274   -2.4909   56.7209 C.ar    1  ZINC000535362552   -0.1600
     24 C24       -10.2345    1.5227   53.0876 C.ar    1  ZINC000535362552   -0.0900
     25 C25        -9.3405    2.4007   52.5163 C.ar    1  ZINC000535362552   -0.0900
     26 C26        -8.1480    1.9302   51.9792 C.ar    1  ZINC000535362552    0.0700
     27 O27        -7.1065    2.5384   51.3766 O.3     1  ZINC000535362552   -0.1700
     28 H28        -2.2331    1.9265   50.2034 H       1  ZINC000535362552    0.0700
     29 H29        -2.2035    0.4724   49.1773 H       1  ZINC000535362552    0.1100
     30 H30        -2.9093    1.9845   48.5579 H       1  ZINC000535362552    0.0700
     31 H31        -6.0186   -0.5307   51.2393 H       1  ZINC000535362552    0.1800
     32 H32        -8.5646   -1.3897   52.6412 H       1  ZINC000535362552    0.1400
     33 H33       -11.3539   -1.3649   53.1689 H       1  ZINC000535362552    0.4100
     34 H34       -13.5512   -2.3776   54.2305 H       1  ZINC000535362552    0.1200
     35 H35       -11.8499   -2.8138   53.8626 H       1  ZINC000535362552    0.0900
     36 H36       -11.6685   -5.8335   57.1401 H       1  ZINC000535362552    0.1400
     37 H37       -10.0980   -5.3161   58.9546 H       1  ZINC000535362552    0.1400
     38 H38       -10.2365   -1.1825   57.9112 H       1  ZINC000535362552    0.1400
     39 H39       -11.1589    1.8959   53.5032 H       1  ZINC000535362552    0.1500
     40 H40        -9.5663    3.4564   52.4857 H       1  ZINC000535362552    0.1500
@<TRIPOS>BOND
     1     1     2    1
     2     1    28    1
     3     1    29    1
     4     1    30    1
     5     2     3    1
     6     3     4    2
     7     3     5    1
     8     5    27    1
     9     5     6    2
    10     6     7    1
    11     6    31    1
    12     7    26   ar
    13     7     8   ar
    14     8     9   ar
    15     8    32    1
    16     9    10    1
    17     9    24   ar
    18    10    11   am
    19    10    33    1
    20    11    12    2
    21    11    13    1
    22    13    14    1
    23    13    23    1
    24    13    15    1
    25    15    16    1
    26    15    34    1
    27    15    35    1
    28    16    17    1
    29    17    23   ar
    30    17    18   ar
    31    18    19   ar
    32    18    36    1
    33    19    20   ar
    34    19    37    1
    35    20    21    1
    36    20    22   ar
    37    22    23   ar
    38    22    38    1
    39    24    25   ar
    40    24    39    1
    41    25    26   ar
    42    25    40    1
    43    26    27    1
@<TRIPOS>SUBSTRUCTURE
     1 ZINC000535362552        1 TEMP              0 ****  ****    0 ROOT


##########                                Name:    ZINC000952280524
##########                DOCK_Rotatable_Bonds:                   9
##########                         Heavy_Atoms:                  25
##########                    Molecular_Weight:             348.486
##########                DOCK_Rotatable_Bonds:                   9
##########                       Formal_Charge:          -0.0100004
##########                     HBond_Acceptors:                   5
##########                        HBond_Donors:                   1
##########                         Heavy_Atoms:                  25
##########                          Grid_Score:          -35.217800
##########                     Grid_vdw_energy:          -33.468941
##########                      Grid_es_energy:           -1.748858
##########           Internal_energy_repulsive:           21.374077

@<TRIPOS>MOLECULE
ZINC000952280524
 57 59 1 0 0
SMALL
USER_CHARGES


@<TRIPOS>ATOM
      1 C1         -6.2611    1.6663   66.5808 C.3     1  ZINC000952280524   -0.1800
      2 C2         -7.4992    2.4028   66.0654 C.3     1  ZINC000952280524    0.1400
      3 C3         -7.7704    3.6234   66.9471 C.3     1  ZINC000952280524   -0.1900
      4 O4         -7.2748    2.8277   64.7196 O.3     1  ZINC000952280524   -0.5500
      5 C5         -8.7063    1.4636   66.1092 C.3     1  ZINC000952280524   -0.1200
      6 C6         -8.4551    0.2805   65.2101 C.2     1  ZINC000952280524    0.5300
      7 O7         -7.8155   -0.6659   65.6177 O.2     1  ZINC000952280524   -0.5100
      8 N8         -8.9413    0.2742   63.9531 N.am    1  ZINC000952280524   -0.6300
      9 C9         -9.7290    1.3500   63.3336 C.3     1  ZINC000952280524    0.1000
     10 C10       -10.0845    0.8923   61.9033 C.3     1  ZINC000952280524   -0.1300
     11 C11        -9.9595   -0.6518   61.9915 C.3     1  ZINC000952280524   -0.1000
     12 H12       -10.8669   -1.0943   62.4025 H       1  ZINC000952280524    0.0900
     13 C13        -9.6297   -1.2542   60.6243 C.3     1  ZINC000952280524   -0.0700
     14 C14        -9.4739   -2.7706   60.7595 C.3     1  ZINC000952280524   -0.1300
     15 C15        -9.1098   -3.3661   59.3958 C.3     1  ZINC000952280524    0.1100
     16 N16       -10.1187   -2.9484   58.4127 N.am    1  ZINC000952280524   -0.6100
     17 C17       -10.7632   -3.8618   57.6598 C.2     1  ZINC000952280524    0.5500
     18 O18       -10.5116   -5.0444   57.7906 O.2     1  ZINC000952280524   -0.5500
     19 C19       -11.7709   -3.4282   56.6798 C.2     1  ZINC000952280524   -0.2200
     20 C20       -11.4613   -3.3737   55.3875 C.2     1  ZINC000952280524   -0.0300
     21 C21       -12.4942   -2.9311   54.3833 C.3     1  ZINC000952280524   -0.1500
     22 C22       -12.2860   -3.3473   52.9258 C.3     1  ZINC000952280524   -0.1700
     23 C23       -13.3827   -4.0104   53.7614 C.3     1  ZINC000952280524   -0.1600
     24 C24       -10.4122   -1.5162   58.2666 C.3     1  ZINC000952280524    0.1000
     25 C25       -10.7617   -0.9415   59.6429 C.3     1  ZINC000952280524   -0.1300
     26 C26        -8.7658   -0.8098   62.9694 C.3     1  ZINC000952280524    0.1100
     27 H27        -6.3974    1.4191   67.6336 H       1  ZINC000952280524    0.0700
     28 H28        -6.1187    0.7500   66.0080 H       1  ZINC000952280524    0.0600
     29 H29        -5.3852    2.3052   66.4682 H       1  ZINC000952280524    0.0600
     30 H30        -6.9106    4.2925   66.9159 H       1  ZINC000952280524    0.0600
     31 H31        -8.6525    4.1480   66.5799 H       1  ZINC000952280524    0.0800
     32 H32        -7.9416    3.2993   67.9737 H       1  ZINC000952280524    0.0600
     33 H33        -7.0960    2.1043   64.1034 H       1  ZINC000952280524    0.3700
     34 H34        -8.8601    1.1171   67.1311 H       1  ZINC000952280524    0.1000
     35 H35        -9.5939    1.9967   65.7687 H       1  ZINC000952280524    0.1000
     36 H36       -10.6410    1.5185   63.9063 H       1  ZINC000952280524    0.0700
     37 H37        -9.1391    2.2657   63.2940 H       1  ZINC000952280524    0.0700
     38 H38       -11.1034    1.1827   61.6475 H       1  ZINC000952280524    0.0800
     39 H39        -9.3744    1.2960   61.1816 H       1  ZINC000952280524    0.0800
     40 H40        -8.6988   -0.8253   60.2534 H       1  ZINC000952280524    0.0800
     41 H41        -8.6833   -2.9926   61.4762 H       1  ZINC000952280524    0.0800
     42 H42       -10.4122   -3.2032   61.1065 H       1  ZINC000952280524    0.0700
     43 H43        -8.1287   -3.0035   59.0889 H       1  ZINC000952280524    0.0700
     44 H44        -9.0947   -4.4538   59.4643 H       1  ZINC000952280524    0.0900
     45 H45       -12.7620   -3.1540   57.0096 H       1  ZINC000952280524    0.1300
     46 H46       -10.4697   -3.6465   55.0578 H       1  ZINC000952280524    0.1300
     47 H47       -12.9429   -1.9554   54.5693 H       1  ZINC000952280524    0.1200
     48 H48       -12.5977   -2.6452   52.1525 H       1  ZINC000952280524    0.1000
     49 H49       -11.4020   -3.9410   52.6932 H       1  ZINC000952280524    0.1000
     50 H50       -13.2202   -5.0405   54.0787 H       1  ZINC000952280524    0.1000
     51 H51       -14.4159   -3.7446   53.5380 H       1  ZINC000952280524    0.1000
     52 H52        -9.5373   -1.0028   57.8676 H       1  ZINC000952280524    0.0700
     53 H53       -11.2564   -1.3834   57.5900 H       1  ZINC000952280524    0.0900
     54 H54       -11.6879   -1.3913   60.0005 H       1  ZINC000952280524    0.0700
     55 H55       -10.8877    0.1384   59.5649 H       1  ZINC000952280524    0.0800
     56 H56        -7.8215   -0.6966   62.4369 H       1  ZINC000952280524    0.0700
     57 H57        -8.8082   -1.7789   63.4664 H       1  ZINC000952280524    0.0800
@<TRIPOS>BOND
     1     1     2    1
     2     1    27    1
     3     1    28    1
     4     1    29    1
     5     2     3    1
     6     2     4    1
     7     2     5    1
     8     3    30    1
     9     3    31    1
    10     3    32    1
    11     4    33    1
    12     5     6    1
    13     5    34    1
    14     5    35    1
    15     6     7    2
    16     6     8   am
    17     8    26    1
    18     8     9    1
    19     9    10    1
    20     9    36    1
    21     9    37    1
    22    10    11    1
    23    10    38    1
    24    10    39    1
    25    11    12    1
    26    11    13    1
    27    11    26    1
    28    13    25    1
    29    13    14    1
    30    13    40    1
    31    14    15    1
    32    14    41    1
    33    14    42    1
    34    15    16    1
    35    15    43    1
    36    15    44    1
    37    16    17   am
    38    16    24    1
    39    17    18    2
    40    17    19    1
    41    19    20    2
    42    19    45    1
    43    20    21    1
    44    20    46    1
    45    21    23    1
    46    21    22    1
    47    21    47    1
    48    22    23    1
    49    22    48    1
    50    22    49    1
    51    23    50    1
    52    23    51    1
    53    24    25    1
    54    24    52    1
    55    24    53    1
    56    25    54    1
    57    25    55    1
    58    26    56    1
    59    26    57    1
@<TRIPOS>SUBSTRUCTURE
     1 ZINC000952280524        1 TEMP              0 ****  ****    0 ROOT


##########                                Name:    ZINC000541568816
##########                DOCK_Rotatable_Bonds:                   8
##########                         Heavy_Atoms:                  25
##########                    Molecular_Weight:             411.339
##########                DOCK_Rotatable_Bonds:                   8
##########                       Formal_Charge:          -0.0100007
##########                     HBond_Acceptors:                   5
##########                        HBond_Donors:                   1
##########                         Heavy_Atoms:                  25
##########                          Grid_Score:          -35.210911
##########                     Grid_vdw_energy:          -33.495892
##########                      Grid_es_energy:           -1.715021
##########           Internal_energy_repulsive:           23.776314

@<TRIPOS>MOLECULE
ZINC000541568816
 52 54 1 0 0
SMALL
USER_CHARGES


@<TRIPOS>ATOM
      1 C1         -7.5505   -1.0151   51.8263 C.3     1  ZINC000541568816   -0.1500
      2 C2         -6.7525   -0.2832   50.7454 C.3     1  ZINC000541568816    0.0600
      3 O3         -7.1599    1.0856   50.6972 O.3     1  ZINC000541568816   -0.3700
      4 C4         -6.5382    1.9120   51.6835 C.3     1  ZINC000541568816    0.0700
      5 H5         -6.5005    1.4428   52.6666 H       1  ZINC000541568816    0.0900
      6 C6         -7.0753    3.3539   51.7081 C.3     1  ZINC000541568816   -0.1700
      7 C7         -5.6208    3.8114   51.9154 C.3     1  ZINC000541568816    0.1500
      8 H8         -5.3587    4.7051   51.3492 H       1  ZINC000541568816    0.1100
      9 N9         -5.2258    3.8934   53.3238 N.am    1  ZINC000541568816   -0.7200
     10 C10        -4.0774    4.5097   53.6668 C.2     1  ZINC000541568816    0.7100
     11 O11        -3.3699    4.9989   52.8075 O.2     1  ZINC000541568816   -0.5800
     12 N12        -3.7132    4.5838   54.9623 N.am    1  ZINC000541568816   -0.6300
     13 C13        -2.4640    5.2522   55.3351 C.3     1  ZINC000541568816    0.1000
     14 C14        -1.2799    4.3414   55.0041 C.3     1  ZINC000541568816   -0.1800
     15 C15        -4.5667    3.9959   55.9979 C.3     1  ZINC000541568816    0.1700
     16 C16        -3.7100    3.5083   57.1377 C.ar    1  ZINC000541568816   -0.0700
     17 C17        -3.0444    2.3015   57.0349 C.ar    1  ZINC000541568816   -0.1000
     18 C18        -2.2584    1.8540   58.0806 C.ar    1  ZINC000541568816   -0.1000
     19 C19        -2.1375    2.6136   59.2291 C.ar    1  ZINC000541568816   -0.1200
     20 C20        -2.8030    3.8208   59.3329 C.ar    1  ZINC000541568816   -0.0900
     21 C21        -3.5852    4.2712   58.2850 C.ar    1  ZINC000541568816   -0.0900
     22 Br22       -4.4958    5.9226   58.4263 Br      1  ZINC000541568816   -0.0500
     23 C23        -5.1988    2.5038   51.2334 C.3     1  ZINC000541568816    0.0800
     24 C24        -5.0238    2.6045   49.7082 C.3     1  ZINC000541568816   -0.1200
     25 C25        -3.4819    2.4889   49.5501 C.3     1  ZINC000541568816   -0.1600
     26 C26        -3.1365    1.5239   50.7128 C.3     1  ZINC000541568816    0.0500
     27 O27        -4.0378    1.8783   51.7763 O.3     1  ZINC000541568816   -0.3600
     28 H28        -7.3664   -0.5471   52.7934 H       1  ZINC000541568816    0.0600
     29 H29        -8.6137   -0.9605   51.5926 H       1  ZINC000541568816    0.0600
     30 H30        -7.2397   -2.0593   51.8631 H       1  ZINC000541568816    0.0700
     31 H31        -5.6892   -0.3380   50.9790 H       1  ZINC000541568816    0.0500
     32 H32        -6.9364   -0.7513   49.7783 H       1  ZINC000541568816    0.0500
     33 H33        -7.5031    3.6764   50.7588 H       1  ZINC000541568816    0.1000
     34 H34        -7.7242    3.5634   52.5585 H       1  ZINC000541568816    0.0800
     35 H35        -5.7909    3.5041   54.0094 H       1  ZINC000541568816    0.4000
     36 H36        -2.3712    6.1851   54.7792 H       1  ZINC000541568816    0.0900
     37 H37        -2.4708    5.4651   56.4041 H       1  ZINC000541568816    0.0700
     38 H38        -1.2730    4.1284   53.9352 H       1  ZINC000541568816    0.0600
     39 H39        -0.3504    4.8387   55.2814 H       1  ZINC000541568816    0.0700
     40 H40        -1.3727    3.4084   55.5599 H       1  ZINC000541568816    0.0600
     41 H41        -5.2646    4.7488   56.3641 H       1  ZINC000541568816    0.1000
     42 H42        -5.1234    3.1583   55.5775 H       1  ZINC000541568816    0.1100
     43 H43        -3.1385    1.7077   56.1377 H       1  ZINC000541568816    0.1300
     44 H44        -1.7389    0.9105   58.0003 H       1  ZINC000541568816    0.1300
     45 H45        -1.5235    2.2636   60.0458 H       1  ZINC000541568816    0.1300
     46 H46        -2.7088    4.4141   60.2304 H       1  ZINC000541568816    0.1300
     47 H47        -5.5295    1.7815   49.2034 H       1  ZINC000541568816    0.1000
     48 H48        -5.3820    3.5652   49.3381 H       1  ZINC000541568816    0.0900
     49 H49        -3.2176    2.0533   48.5866 H       1  ZINC000541568816    0.0900
     50 H50        -2.9996    3.4568   49.6869 H       1  ZINC000541568816    0.0800
     51 H51        -3.2997    0.4903   50.4075 H       1  ZINC000541568816    0.0600
     52 H52        -2.1033    1.6671   51.0291 H       1  ZINC000541568816    0.0900
@<TRIPOS>BOND
     1     1     2    1
     2     1    28    1
     3     1    29    1
     4     1    30    1
     5     2     3    1
     6     2    31    1
     7     2    32    1
     8     3     4    1
     9     4     5    1
    10     4    23    1
    11     4     6    1
    12     6     7    1
    13     6    33    1
    14     6    34    1
    15     7     8    1
    16     7     9    1
    17     7    23    1
    18     9    10   am
    19     9    35    1
    20    10    11    2
    21    10    12   am
    22    12    13    1
    23    12    15    1
    24    13    14    1
    25    13    36    1
    26    13    37    1
    27    14    38    1
    28    14    39    1
    29    14    40    1
    30    15    16    1
    31    15    41    1
    32    15    42    1
    33    16    21   ar
    34    16    17   ar
    35    17    18   ar
    36    17    43    1
    37    18    19   ar
    38    18    44    1
    39    19    20   ar
    40    19    45    1
    41    20    21   ar
    42    20    46    1
    43    21    22    1
    44    23    27    1
    45    23    24    1
    46    24    25    1
    47    24    47    1
    48    24    48    1
    49    25    26    1
    50    25    49    1
    51    25    50    1
    52    26    27    1
    53    26    51    1
    54    26    52    1
@<TRIPOS>SUBSTRUCTURE
     1 ZINC000541568816        1 TEMP              0 ****  ****    0 ROOT


##########                                Name:    ZINC000012979878
##########                DOCK_Rotatable_Bonds:                   7
##########                         Heavy_Atoms:                  26
##########                    Molecular_Weight:             388.874
##########                DOCK_Rotatable_Bonds:                   7
##########                       Formal_Charge:          -0.0100003
##########                     HBond_Acceptors:                   7
##########                        HBond_Donors:                   1
##########                         Heavy_Atoms:                  26
##########                          Grid_Score:          -35.206127
##########                     Grid_vdw_energy:          -35.197662
##########                      Grid_es_energy:           -0.008466
##########           Internal_energy_repulsive:           15.829502

@<TRIPOS>MOLECULE
ZINC000012979878
 43 45 1 0 0
SMALL
USER_CHARGES


@<TRIPOS>ATOM
      1 C1         -4.4187    3.7577   51.3619 C.3     1  <0>         0.0300
      2 O2         -5.4831    3.2088   52.1415 O.3     1  <0>        -0.3100
      3 C3         -5.9588    1.9923   51.7663 C.ar    1  <0>         0.1500
      4 C4         -5.4125    1.3414   50.6692 C.ar    1  <0>        -0.2200
      5 C5         -5.8955    0.1044   50.2860 C.ar    1  <0>        -0.0600
      6 C6         -6.9229   -0.4881   50.9937 C.ar    1  <0>        -0.1800
      7 C7         -7.4739    0.1590   52.0930 C.ar    1  <0>         0.1800
      8 N8         -8.5142   -0.4408   52.8095 N.am    1  <0>        -0.6700
      9 C9         -9.7288    0.1421   52.8493 C.2     1  <0>         0.6000
     10 O10        -9.9201    1.1904   52.2616 O.2     1  <0>        -0.4900
     11 C11       -10.8198   -0.4870   53.6007 C.2     1  <0>        -0.3000
     12 C12       -11.3658   -1.7036   53.3507 C.2     1  <0>         0.1600
     13 C13       -10.9014   -2.5942   52.2272 C.3     1  <0>        -0.0900
     14 N14       -12.3306   -2.0374   54.1706 N.2     1  <0>        -0.4500
     15 C15       -12.6424   -1.1906   55.0985 C.2     1  <0>         0.0600
     16 C16       -13.7221   -1.4021   56.1284 C.3     1  <0>         0.1300
     17 O17       -13.5451   -2.6769   56.7492 O.3     1  <0>        -0.3000
     18 C18       -12.3740   -2.8858   57.4067 C.ar    1  <0>         0.1300
     19 C19       -11.8275   -4.1595   57.4644 C.ar    1  <0>        -0.2000
     20 C20       -10.6372   -4.3698   58.1332 C.ar    1  <0>        -0.0700
     21 C21        -9.9903   -3.3110   58.7457 C.ar    1  <0>        -0.0700
     22 Cl22       -8.4948   -3.5779   59.5859 Cl      1  <0>        -0.0700
     23 C23       -10.5336   -2.0398   58.6888 C.ar    1  <0>        -0.0700
     24 C24       -11.7208   -1.8244   58.0161 C.ar    1  <0>        -0.1300
     25 S25       -11.6514    0.1985   54.9948 S.3     1  <0>         0.2000
     26 C26        -6.9863    1.3985   52.4825 C.ar    1  <0>        -0.1500
     27 H27        -3.5612    3.0855   51.3933 H       1  <0>         0.0600
     28 H28        -4.7486    3.8779   50.3300 H       1  <0>         0.0600
     29 H29        -4.1343    4.7286   51.7677 H       1  <0>         0.1000
     30 H30        -4.6089    1.8023   50.1138 H       1  <0>         0.1300
     31 H31        -5.4690   -0.3996   49.4314 H       1  <0>         0.1300
     32 H32        -7.2986   -1.4548   50.6922 H       1  <0>         0.1300
     33 H33        -8.3618   -1.2764   53.2781 H       1  <0>         0.4100
     34 H34       -10.1044   -3.2458   52.5858 H       1  <0>         0.0900
     35 H35       -11.7360   -3.2009   51.8757 H       1  <0>         0.0800
     36 H36       -10.5279   -1.9804   51.4077 H       1  <0>         0.1000
     37 H37       -13.6620   -0.6186   56.8839 H       1  <0>         0.0900
     38 H38       -14.6981   -1.3660   55.6443 H       1  <0>         0.1000
     39 H39       -12.3325   -4.9863   56.9872 H       1  <0>         0.1400
     40 H40       -10.2114   -5.3613   58.1783 H       1  <0>         0.1400
     41 H41       -10.0270   -1.2146   59.1672 H       1  <0>         0.1400
     42 H42       -12.1446   -0.8321   57.9720 H       1  <0>         0.1400
     43 H43        -7.4124    1.9034   53.3368 H       1  <0>         0.1400
@<TRIPOS>BOND
     1     1     2    1
     2     1    27    1
     3     1    28    1
     4     1    29    1
     5     2     3    1
     6     3    26   ar
     7     3     4   ar
     8     4     5   ar
     9     4    30    1
    10     5     6   ar
    11     5    31    1
    12     6     7   ar
    13     6    32    1
    14     7     8    1
    15     7    26   ar
    16     8     9   am
    17     8    33    1
    18     9    10    2
    19     9    11    1
    20    11    25    1
    21    11    12    2
    22    12    13    1
    23    12    14    1
    24    13    34    1
    25    13    35    1
    26    13    36    1
    27    14    15    2
    28    15    16    1
    29    15    25    1
    30    16    17    1
    31    16    37    1
    32    16    38    1
    33    17    18    1
    34    18    24   ar
    35    18    19   ar
    36    19    20   ar
    37    19    39    1
    38    20    21   ar
    39    20    40    1
    40    21    22    1
    41    21    23   ar
    42    23    24   ar
    43    23    41    1
    44    24    42    1
    45    26    43    1
@<TRIPOS>SUBSTRUCTURE
     1 <0>         1 TEMP              0 ****  ****    0 ROOT


##########                                Name:    ZINC000020646552
##########                DOCK_Rotatable_Bonds:                   5
##########                         Heavy_Atoms:                  29
##########                    Molecular_Weight:             412.556
##########                DOCK_Rotatable_Bonds:                   5
##########                       Formal_Charge:          -0.0200012
##########                     HBond_Acceptors:                   7
##########                        HBond_Donors:                   0
##########                         Heavy_Atoms:                  29
##########                          Grid_Score:          -35.194839
##########                     Grid_vdw_energy:          -35.111774
##########                      Grid_es_energy:           -0.083065
##########           Internal_energy_repulsive:           13.447594

@<TRIPOS>MOLECULE
ZINC000020646552
 57 60 1 0 0
SMALL
USER_CHARGES


@<TRIPOS>ATOM
      1 C1         -9.8168    3.5661   54.3495 C.3     1  ZINC000020646552    0.0200
      2 N2         -9.2903    2.9096   53.1454 N.3     1  ZINC000020646552   -0.5400
      3 C3         -8.3254    1.8594   53.4977 C.3     1  ZINC000020646552    0.0400
      4 C4         -7.9387    1.0815   52.2353 C.3     1  ZINC000020646552    0.1200
      5 N5         -7.4729    2.0391   51.2207 N.am    1  ZINC000020646552   -0.6100
      6 C6         -6.2953    1.8605   50.5899 C.2     1  ZINC000020646552    0.5300
      7 O7         -5.9260    2.6610   49.7571 O.2     1  ZINC000020646552   -0.5200
      8 C8         -5.4374    0.6662   50.9197 C.3     1  ZINC000020646552   -0.1500
      9 S9         -3.9265    0.7154   49.9242 S.3     1  ZINC000020646552    0.0500
     10 C10        -3.0039    1.9144   50.8274 C.ar    1  ZINC000020646552    0.1500
     11 N11        -3.4845    2.4252   51.9559 N.ar    1  ZINC000020646552   -0.5200
     12 C12        -2.7907    3.3275   52.6357 C.ar    1  ZINC000020646552    0.3800
     13 C13        -3.3544    3.8759   53.8933 C.ar    1  ZINC000020646552   -0.0500
     14 C14        -2.6643    4.8603   54.5983 C.ar    1  ZINC000020646552   -0.0700
     15 C15        -3.1937    5.3673   55.7677 C.ar    1  ZINC000020646552   -0.1300
     16 C16        -4.4069    4.9000   56.2402 C.ar    1  ZINC000020646552   -0.1000
     17 C17        -5.0960    3.9227   55.5449 C.ar    1  ZINC000020646552   -0.1300
     18 C18        -4.5789    3.4126   54.3714 C.ar    1  ZINC000020646552   -0.0700
     19 N19        -1.6062    3.7515   52.2198 N.ar    1  ZINC000020646552   -0.5200
     20 C20        -1.0678    3.2837   51.1007 C.ar    1  ZINC000020646552    0.2100
     21 C21        -1.7512    2.3391   50.3699 C.ar    1  ZINC000020646552   -0.2100
     22 C22        -1.1897    1.7610   49.1003 C.3     1  ZINC000020646552    0.1100
     23 O23        -0.1177    2.5737   48.6210 O.3     1  ZINC000020646552   -0.3600
     24 C24         0.8739    2.8453   49.6178 C.3     1  ZINC000020646552    0.1100
     25 C25         1.2881    1.5396   50.2994 C.3     1  ZINC000020646552   -0.1800
     26 C26         2.0958    3.4933   48.9637 C.3     1  ZINC000020646552   -0.1400
     27 C27         0.2779    3.7943   50.6575 C.3     1  ZINC000020646552   -0.0900
     28 C28        -8.3265    3.1966   50.9126 C.3     1  ZINC000020646552    0.1100
     29 C29        -8.6980    3.8911   52.2270 C.3     1  ZINC000020646552    0.0400
     30 H30       -10.5842    4.2858   54.0649 H       1  ZINC000020646552    0.0700
     31 H31       -10.2495    2.8166   55.0123 H       1  ZINC000020646552    0.0700
     32 H32        -9.0072    4.0829   54.8650 H       1  ZINC000020646552    0.0300
     33 H33        -7.4350    2.3142   53.9317 H       1  ZINC000020646552    0.0400
     34 H34        -8.7759    1.1791   54.2204 H       1  ZINC000020646552    0.0900
     35 H35        -7.1395    0.3781   52.4691 H       1  ZINC000020646552    0.1000
     36 H36        -8.8068    0.5413   51.8577 H       1  ZINC000020646552    0.0800
     37 H37        -5.1763    0.6873   51.9777 H       1  ZINC000020646552    0.1300
     38 H38        -5.9880   -0.2485   50.6995 H       1  ZINC000020646552    0.1200
     39 H39        -1.7169    5.2256   54.2304 H       1  ZINC000020646552    0.1400
     40 H40        -2.6597    6.1299   56.3150 H       1  ZINC000020646552    0.1300
     41 H41        -4.8175    5.2996   57.1557 H       1  ZINC000020646552    0.1300
     42 H42        -6.0427    3.5613   55.9187 H       1  ZINC000020646552    0.1300
     43 H43        -5.1177    2.6496   53.8293 H       1  ZINC000020646552    0.1300
     44 H44        -0.8208    0.7538   49.2942 H       1  ZINC000020646552    0.0800
     45 H45        -1.9748    1.7167   48.3454 H       1  ZINC000020646552    0.1100
     46 H46         1.6993    0.8564   49.5563 H       1  ZINC000020646552    0.0700
     47 H47         2.0428    1.7489   51.0576 H       1  ZINC000020646552    0.0700
     48 H48         0.4172    1.0832   50.7700 H       1  ZINC000020646552    0.0600
     49 H49         1.7994    4.4263   48.4844 H       1  ZINC000020646552    0.0700
     50 H50         2.8489    3.6989   49.7244 H       1  ZINC000020646552    0.0800
     51 H51         2.5097    2.8163   48.2163 H       1  ZINC000020646552    0.0700
     52 H52         0.1568    4.7843   50.2178 H       1  ZINC000020646552    0.1000
     53 H53         0.9470    3.8587   51.5156 H       1  ZINC000020646552    0.1000
     54 H54        -7.7836    3.8915   50.2719 H       1  ZINC000020646552    0.0900
     55 H55        -9.2319    2.8597   50.4078 H       1  ZINC000020646552    0.0800
     56 H56        -9.4186    4.6844   52.0282 H       1  ZINC000020646552    0.0900
     57 H57        -7.8024    4.3177   52.6787 H       1  ZINC000020646552    0.0400
@<TRIPOS>BOND
     1     1     2    1
     2     1    30    1
     3     1    31    1
     4     1    32    1
     5     2    29    1
     6     2     3    1
     7     3     4    1
     8     3    33    1
     9     3    34    1
    10     4     5    1
    11     4    35    1
    12     4    36    1
    13     5     6   am
    14     5    28    1
    15     6     7    2
    16     6     8    1
    17     8     9    1
    18     8    37    1
    19     8    38    1
    20     9    10    1
    21    10    21   ar
    22    10    11   ar
    23    11    12   ar
    24    12    13    1
    25    12    19   ar
    26    13    18   ar
    27    13    14   ar
    28    14    15   ar
    29    14    39    1
    30    15    16   ar
    31    15    40    1
    32    16    17   ar
    33    16    41    1
    34    17    18   ar
    35    17    42    1
    36    18    43    1
    37    19    20   ar
    38    20    27    1
    39    20    21   ar
    40    21    22    1
    41    22    23    1
    42    22    44    1
    43    22    45    1
    44    23    24    1
    45    24    25    1
    46    24    26    1
    47    24    27    1
    48    25    46    1
    49    25    47    1
    50    25    48    1
    51    26    49    1
    52    26    50    1
    53    26    51    1
    54    27    52    1
    55    27    53    1
    56    28    29    1
    57    28    54    1
    58    28    55    1
    59    29    56    1
    60    29    57    1
@<TRIPOS>SUBSTRUCTURE
     1 ZINC000020646552        1 TEMP              0 ****  ****    0 ROOT


##########                                Name:    ZINC000269356812
##########                DOCK_Rotatable_Bonds:                  10
##########                         Heavy_Atoms:                  25
##########                    Molecular_Weight:             387.431
##########                DOCK_Rotatable_Bonds:                  10
##########                       Formal_Charge:          0.00999978
##########                     HBond_Acceptors:                  10
##########                        HBond_Donors:                   3
##########                         Heavy_Atoms:                  25
##########                          Grid_Score:          -35.145729
##########                     Grid_vdw_energy:          -29.467098
##########                      Grid_es_energy:           -5.678631
##########           Internal_energy_repulsive:            6.311045

@<TRIPOS>MOLECULE
ZINC000269356812
 40 41 1 0 0
SMALL
USER_CHARGES


@<TRIPOS>ATOM
      1 C1          4.5384    1.5125   45.4365 C.3     1  ZINC000269356812   -0.1400
      2 C2          3.1370    1.7727   45.9925 C.3     1  ZINC000269356812    0.2000
      3 O3          2.2869    0.6681   45.6777 O.3     1  ZINC000269356812   -0.5400
      4 C4          3.2139    1.9402   47.5114 C.3     1  ZINC000269356812    0.0900
      5 N5          1.8598    2.0476   48.0601 N.am    1  ZINC000269356812   -0.6900
      6 C6          1.6342    1.7632   49.3581 C.2     1  ZINC000269356812    0.5100
      7 O7          2.5525    1.4168   50.0719 O.2     1  ZINC000269356812   -0.5100
      8 C8          0.2543    1.8744   49.9178 C.2     1  ZINC000269356812    0.5100
      9 O9          0.0627    1.6869   51.1018 O.2     1  ZINC000269356812   -0.4900
     10 N10        -0.7784    2.1826   49.1085 N.am    1  ZINC000269356812   -0.6400
     11 C11        -2.0714    2.2867   49.6329 C.ar    1  ZINC000269356812    0.0900
     12 C12        -2.5744    3.5255   50.0300 C.ar    1  ZINC000269356812   -0.0600
     13 C13        -3.8571    3.5819   50.5420 C.ar    1  ZINC000269356812   -0.1200
     14 C14        -4.5990    2.4090   50.6440 C.ar    1  ZINC000269356812    0.1000
     15 S15        -6.2355    2.4671   51.2945 S.3     1  ZINC000269356812   -0.0600
     16 C16        -6.6561    0.7145   51.4986 C.3     1  ZINC000269356812    0.2900
     17 F17        -7.8336    0.6014   52.2455 F       1  ZINC000269356812   -0.1700
     18 F18        -6.8434    0.1302   50.2413 F       1  ZINC000269356812   -0.1700
     19 N19        -4.0890    1.2494   50.2570 N.ar    1  ZINC000269356812   -0.4600
     20 C20        -2.8709    1.1598   49.7590 C.ar    1  ZINC000269356812    0.1100
     21 C21         2.5773    3.0289   45.3763 C.2     1  ZINC000269356812   -0.2300
     22 C22         1.9891    3.1031   44.1814 C.2     1  ZINC000269356812   -0.1100
     23 C23         1.5515    4.3669   43.8242 C.2     1  ZINC000269356812   -0.1400
     24 C24         1.7843    5.3189   44.7290 C.2     1  ZINC000269356812   -0.2000
     25 S25         2.5930    4.6199   46.1259 S.3     1  ZINC000269356812    0.1100
     26 H26         4.4836    1.3931   44.3544 H       1  ZINC000269356812    0.0800
     27 H27         5.1868    2.3551   45.6767 H       1  ZINC000269356812    0.0800
     28 H28         4.9432    0.6039   45.8822 H       1  ZINC000269356812    0.0700
     29 H29         1.3703    0.7831   45.9634 H       1  ZINC000269356812    0.3800
     30 H30         3.7152    1.0760   47.9473 H       1  ZINC000269356812    0.0900
     31 H31         3.7751    2.8439   47.7493 H       1  ZINC000269356812    0.0900
     32 H32         1.1256    2.3233   47.4893 H       1  ZINC000269356812    0.4200
     33 H33        -0.6252    2.3323   48.1623 H       1  ZINC000269356812    0.4300
     34 H34        -1.9757    4.4198   49.9396 H       1  ZINC000269356812    0.1600
     35 H35        -4.2781    4.5245   50.8595 H       1  ZINC000269356812    0.1500
     36 H36        -5.8454    0.2045   52.0191 H       1  ZINC000269356812    0.1500
     37 H37        -2.4884    0.1970   49.4540 H       1  ZINC000269356812    0.1700
     38 H38         1.8641    2.2426   43.5409 H       1  ZINC000269356812    0.1500
     39 H39         1.0592    4.5669   42.8839 H       1  ZINC000269356812    0.1400
     40 H40         1.5142    6.3590   44.6219 H       1  ZINC000269356812    0.1700
@<TRIPOS>BOND
     1     1     2    1
     2     1    26    1
     3     1    27    1
     4     1    28    1
     5     2     3    1
     6     2     4    1
     7     2    21    1
     8     3    29    1
     9     4     5    1
    10     4    30    1
    11     4    31    1
    12     5     6   am
    13     5    32    1
    14     6     7    2
    15     6     8    1
    16     8     9    2
    17     8    10   am
    18    10    11    1
    19    10    33    1
    20    11    20   ar
    21    11    12   ar
    22    12    13   ar
    23    12    34    1
    24    13    14   ar
    25    13    35    1
    26    14    15    1
    27    14    19   ar
    28    15    16    1
    29    16    17    1
    30    16    18    1
    31    16    36    1
    32    19    20   ar
    33    20    37    1
    34    21    25    1
    35    21    22    2
    36    22    23    1
    37    22    38    1
    38    23    24    2
    39    23    39    1
    40    24    25    1
    41    24    40    1
@<TRIPOS>SUBSTRUCTURE
     1 ZINC000269356812        1 TEMP              0 ****  ****    0 ROOT


##########                                Name:    ZINC000132775118
##########                DOCK_Rotatable_Bonds:                   5
##########                         Heavy_Atoms:                  27
##########                    Molecular_Weight:             376.499
##########                DOCK_Rotatable_Bonds:                   5
##########                       Formal_Charge:        -4.76837e-07
##########                     HBond_Acceptors:                   7
##########                        HBond_Donors:                   1
##########                         Heavy_Atoms:                  27
##########                          Grid_Score:          -35.144493
##########                     Grid_vdw_energy:          -33.894222
##########                      Grid_es_energy:           -1.250272
##########           Internal_energy_repulsive:           22.618822

@<TRIPOS>MOLECULE
ZINC000132775118
 59 62 1 0 0
SMALL
USER_CHARGES


@<TRIPOS>ATOM
      1 O1        -13.7529   -4.9344   56.2403 O.2     1  ZINC000132775118   -0.5200
      2 C2        -12.7538   -4.2866   56.0101 C.2     1  ZINC000132775118    0.5200
      3 C3        -11.6971   -4.1279   57.0728 C.3     1  ZINC000132775118    0.0300
      4 N4        -11.7736   -2.7756   57.6412 N.3     1  ZINC000132775118   -0.5100
      5 C5        -13.1709   -2.3372   57.7718 C.3     1  ZINC000132775118    0.0300
      6 C6        -13.2532   -1.0545   58.5480 C.2     1  ZINC000132775118    0.5300
      7 O7        -14.2837   -0.4167   58.5007 O.2     1  ZINC000132775118   -0.5500
      8 N8        -12.2437   -0.5806   59.2909 N.am    1  ZINC000132775118   -0.7200
      9 C9        -10.9503   -1.2475   59.3488 C.3     1  ZINC000132775118    0.1500
     10 H10       -10.2693   -0.7603   58.6508 H       1  ZINC000132775118    0.0800
     11 C11       -10.3491   -1.1874   60.7513 C.3     1  ZINC000132775118   -0.1300
     12 C12        -8.9673   -1.8487   60.7266 C.3     1  ZINC000132775118   -0.1200
     13 C13        -9.0922   -3.3028   60.2712 C.3     1  ZINC000132775118   -0.1200
     14 C14        -9.7234   -3.3625   58.8765 C.3     1  ZINC000132775118   -0.1200
     15 C15       -11.1070   -2.7155   58.9470 C.3     1  ZINC000132775118    0.0700
     16 H16       -11.7167   -3.2441   59.6797 H       1  ZINC000132775118    0.0600
     17 N17       -12.5858   -3.7135   54.8019 N.am    1  ZINC000132775118   -0.6200
     18 C18       -13.6098   -3.8544   53.7576 C.3     1  ZINC000132775118    0.1100
     19 C19       -14.0004   -2.4596   53.2587 C.3     1  ZINC000132775118   -0.1200
     20 C20       -12.7428   -1.7125   52.8090 C.3     1  ZINC000132775118   -0.1000
     21 C21       -13.1269   -0.3524   52.2857 C.2     1  ZINC000132775118    0.5300
     22 O22       -13.1171    0.6075   53.0269 O.2     1  ZINC000132775118   -0.5300
     23 N23       -13.4814   -0.2029   50.9941 N.am    1  ZINC000132775118   -0.6200
     24 C24       -13.5428   -1.2775   49.9925 C.3     1  ZINC000132775118    0.1000
     25 C25       -13.9697   -0.6344   48.6561 C.3     1  ZINC000132775118   -0.1300
     26 C26       -13.5767    0.8545   48.8457 C.3     1  ZINC000132775118   -0.1300
     27 C27       -13.8782    1.0640   50.3530 C.3     1  ZINC000132775118    0.1000
     28 C28       -11.7908   -1.5516   53.9965 C.3     1  ZINC000132775118   -0.1200
     29 C29       -11.3781   -2.9310   54.5059 C.3     1  ZINC000132775118    0.1200
     30 H30       -11.8609   -4.8631   57.8606 H       1  ZINC000132775118    0.0700
     31 H31       -10.7122   -4.2815   56.6316 H       1  ZINC000132775118    0.1200
     32 H32       -13.5935   -2.1838   56.7788 H       1  ZINC000132775118    0.1300
     33 H33       -13.7422   -3.1077   58.2894 H       1  ZINC000132775118    0.0700
     34 H34       -12.3783    0.2309   59.8051 H       1  ZINC000132775118    0.4000
     35 H35       -10.2506   -0.1473   61.0621 H       1  ZINC000132775118    0.0800
     36 H36       -10.9961   -1.7192   61.4489 H       1  ZINC000132775118    0.0700
     37 H37        -8.3195   -1.3079   60.0366 H       1  ZINC000132775118    0.0700
     38 H38        -8.5339   -1.8186   61.7263 H       1  ZINC000132775118    0.0700
     39 H39        -8.1025   -3.7585   60.2401 H       1  ZINC000132775118    0.0700
     40 H40        -9.7187   -3.8500   60.9756 H       1  ZINC000132775118    0.0600
     41 H41        -9.0938   -2.8250   58.1675 H       1  ZINC000132775118    0.0800
     42 H42        -9.8223   -4.4022   58.5647 H       1  ZINC000132775118    0.0700
     43 H43       -13.2095   -4.4398   52.9299 H       1  ZINC000132775118    0.0800
     44 H44       -14.4865   -4.3534   54.1706 H       1  ZINC000132775118    0.0900
     45 H45       -14.6880   -2.5533   52.4182 H       1  ZINC000132775118    0.0800
     46 H46       -14.4832   -1.9069   54.0646 H       1  ZINC000132775118    0.0800
     47 H47       -12.2467   -2.2782   52.0203 H       1  ZINC000132775118    0.0900
     48 H48       -12.5618   -1.7401   49.8847 H       1  ZINC000132775118    0.0700
     49 H49       -14.2762   -2.0249   50.2951 H       1  ZINC000132775118    0.0700
     50 H50       -13.4211   -1.0750   47.8236 H       1  ZINC000132775118    0.0800
     51 H51       -15.0448   -0.7334   48.5065 H       1  ZINC000132775118    0.0800
     52 H52       -12.5196    1.0101   48.6301 H       1  ZINC000132775118    0.0800
     53 H53       -14.1992    1.5043   48.2306 H       1  ZINC000132775118    0.0900
     54 H54       -14.9405    1.2556   50.5043 H       1  ZINC000132775118    0.0700
     55 H55       -13.2833    1.8876   50.7479 H       1  ZINC000132775118    0.0800
     56 H56       -10.9058   -0.9990   53.6811 H       1  ZINC000132775118    0.0800
     57 H57       -12.2945   -1.0074   54.7954 H       1  ZINC000132775118    0.0800
     58 H58       -10.7804   -2.8225   55.4109 H       1  ZINC000132775118    0.1000
     59 H59       -10.7959   -3.4440   53.7404 H       1  ZINC000132775118    0.0700
@<TRIPOS>BOND
     1     1     2    2
     2     2     3    1
     3     2    17   am
     4     3     4    1
     5     3    30    1
     6     3    31    1
     7     4    15    1
     8     4     5    1
     9     5     6    1
    10     5    32    1
    11     5    33    1
    12     6     7    2
    13     6     8   am
    14     8     9    1
    15     8    34    1
    16     9    10    1
    17     9    15    1
    18     9    11    1
    19    11    12    1
    20    11    35    1
    21    11    36    1
    22    12    13    1
    23    12    37    1
    24    12    38    1
    25    13    14    1
    26    13    39    1
    27    13    40    1
    28    14    15    1
    29    14    41    1
    30    14    42    1
    31    15    16    1
    32    17    29    1
    33    17    18    1
    34    18    19    1
    35    18    43    1
    36    18    44    1
    37    19    20    1
    38    19    45    1
    39    19    46    1
    40    20    21    1
    41    20    28    1
    42    20    47    1
    43    21    22    2
    44    21    23   am
    45    23    27    1
    46    23    24    1
    47    24    25    1
    48    24    48    1
    49    24    49    1
    50    25    26    1
    51    25    50    1
    52    25    51    1
    53    26    27    1
    54    26    52    1
    55    26    53    1
    56    27    54    1
    57    27    55    1
    58    28    29    1
    59    28    56    1
    60    28    57    1
    61    29    58    1
    62    29    59    1
@<TRIPOS>SUBSTRUCTURE
     1 ZINC000132775118        1 TEMP              0 ****  ****    0 ROOT


##########                                Name:    ZINC000541000201
##########                DOCK_Rotatable_Bonds:                  10
##########                         Heavy_Atoms:                  30
##########                    Molecular_Weight:             420.413
##########                DOCK_Rotatable_Bonds:                  10
##########                       Formal_Charge:               -0.03
##########                     HBond_Acceptors:                   9
##########                        HBond_Donors:                   1
##########                         Heavy_Atoms:                  30
##########                          Grid_Score:          -35.134399
##########                     Grid_vdw_energy:          -31.317696
##########                      Grid_es_energy:           -3.816704
##########           Internal_energy_repulsive:           14.456335

@<TRIPOS>MOLECULE
ZINC000541000201
 52 54 1 0 0
SMALL
USER_CHARGES


@<TRIPOS>ATOM
      1 C1         -2.4333    1.7470   49.8937 C.3     1  ZINC000541000201    0.0400
      2 O2         -3.1299    1.9997   51.1425 O.3     1  ZINC000541000201   -0.3500
      3 C3         -4.2072    2.7986   51.0885 C.2     1  ZINC000541000201    0.4500
      4 O4         -4.5959    3.2176   50.0240 O.2     1  ZINC000541000201   -0.4900
      5 C5         -4.9318    3.1729   52.3557 C.3     1  ZINC000541000201    0.2100
      6 H6         -5.0689    4.2537   52.3902 H       1  ZINC000541000201    0.1400
      7 N7         -4.1440    2.7435   53.5138 N.am    1  ZINC000541000201   -0.7100
      8 C8         -3.0783    3.4673   53.9097 C.2     1  ZINC000541000201    0.5800
      9 O9         -2.7699    4.4759   53.3050 O.2     1  ZINC000541000201   -0.5300
     10 C10        -2.2856    3.0356   55.0778 C.ar    1  ZINC000541000201   -0.2300
     11 C11        -2.8424    2.1790   56.0385 C.ar    1  ZINC000541000201    0.0200
     12 C12        -2.0618    1.8035   57.1127 C.ar    1  ZINC000541000201   -0.2000
     13 C13        -0.7590    2.2824   57.2073 C.ar    1  ZINC000541000201    0.3500
     14 O14         0.0121    1.9169   58.2598 O.3     1  ZINC000541000201   -0.2900
     15 C15        -0.6656    1.5254   59.4555 C.3     1  ZINC000541000201    0.0800
     16 C16         0.3547    1.1700   60.5653 C.3     1  ZINC000541000201   -0.1400
     17 C17        -0.4663    1.3751   61.8627 C.3     1  ZINC000541000201   -0.1200
     18 C18        -1.3341    2.6162   61.5690 C.3     1  ZINC000541000201   -0.1200
     19 C19        -1.4609    2.7117   60.0384 C.3     1  ZINC000541000201   -0.1200
     20 N20        -0.2615    3.0900   56.2831 N.ar    1  ZINC000541000201   -0.5400
     21 C21        -0.9689    3.4691   55.2395 C.ar    1  ZINC000541000201    0.1800
     22 C22        -6.2773    2.4948   52.3840 C.ar    1  ZINC000541000201   -0.1300
     23 C23        -7.4173    3.2338   52.6414 C.ar    1  ZINC000541000201   -0.0700
     24 C24        -8.6519    2.6145   52.6680 C.ar    1  ZINC000541000201   -0.1300
     25 C25        -8.7473    1.2501   52.4357 C.ar    1  ZINC000541000201    0.1200
     26 O26        -9.9608    0.6387   52.4609 O.3     1  ZINC000541000201   -0.3200
     27 C27       -10.2323   -0.2186   53.5715 C.3     1  ZINC000541000201    0.4100
     28 F28       -11.3999    0.2066   54.2143 F       1  ZINC000541000201   -0.2000
     29 F29       -10.4016   -1.5309   53.1172 F       1  ZINC000541000201   -0.2000
     30 C30        -7.6021    0.5110   52.1773 C.ar    1  ZINC000541000201   -0.1900
     31 C31        -6.3704    1.1359   52.1471 C.ar    1  ZINC000541000201   -0.0500
     32 H32        -1.5845    1.0885   50.0779 H       1  ZINC000541000201    0.1000
     33 H33        -3.1146    1.2727   49.1872 H       1  ZINC000541000201    0.0600
     34 H34        -2.0781    2.6901   49.4786 H       1  ZINC000541000201    0.0600
     35 H35        -4.3894    1.9381   53.9956 H       1  ZINC000541000201    0.4100
     36 H36        -3.8571    1.8224   55.9404 H       1  ZINC000541000201    0.1600
     37 H37        -2.4580    1.1452   57.8719 H       1  ZINC000541000201    0.1500
     38 H38        -1.3277    0.6821   59.2589 H       1  ZINC000541000201    0.1000
     39 H39         0.6798    0.1337   60.4737 H       1  ZINC000541000201    0.0700
     40 H40         1.2080    1.8477   60.5369 H       1  ZINC000541000201    0.0800
     41 H41        -1.0957    0.5067   62.0571 H       1  ZINC000541000201    0.0700
     42 H42         0.1962    1.5640   62.7074 H       1  ZINC000541000201    0.0700
     43 H43        -2.3200    2.4973   62.0186 H       1  ZINC000541000201    0.0700
     44 H44        -0.8504    3.5111   61.9602 H       1  ZINC000541000201    0.0700
     45 H45        -1.0387    3.6531   59.6869 H       1  ZINC000541000201    0.0800
     46 H46        -2.5082    2.6392   59.7453 H       1  ZINC000541000201    0.0700
     47 H47        -0.5289    4.1285   54.5061 H       1  ZINC000541000201    0.1600
     48 H48        -7.3424    4.2959   52.8221 H       1  ZINC000541000201    0.1300
     49 H49        -9.5419    3.1920   52.8698 H       1  ZINC000541000201    0.1400
     50 H50        -9.3979   -0.1813   54.2719 H       1  ZINC000541000201    0.1900
     51 H51        -7.6738   -0.5513   51.9965 H       1  ZINC000541000201    0.1400
     52 H52        -5.4786    0.5610   51.9455 H       1  ZINC000541000201    0.1400
@<TRIPOS>BOND
     1     1     2    1
     2     1    32    1
     3     1    33    1
     4     1    34    1
     5     2     3    1
     6     3     4    2
     7     3     5    1
     8     5     6    1
     9     5     7    1
    10     5    22    1
    11     7     8   am
    12     7    35    1
    13     8     9    2
    14     8    10    1
    15    10    21   ar
    16    10    11   ar
    17    11    12   ar
    18    11    36    1
    19    12    13   ar
    20    12    37    1
    21    13    14    1
    22    13    20   ar
    23    14    15    1
    24    15    19    1
    25    15    16    1
    26    15    38    1
    27    16    17    1
    28    16    39    1
    29    16    40    1
    30    17    18    1
    31    17    41    1
    32    17    42    1
    33    18    19    1
    34    18    43    1
    35    18    44    1
    36    19    45    1
    37    19    46    1
    38    20    21   ar
    39    21    47    1
    40    22    31   ar
    41    22    23   ar
    42    23    24   ar
    43    23    48    1
    44    24    25   ar
    45    24    49    1
    46    25    26    1
    47    25    30   ar
    48    26    27    1
    49    27    28    1
    50    27    29    1
    51    27    50    1
    52    30    31   ar
    53    30    51    1
    54    31    52    1
@<TRIPOS>SUBSTRUCTURE
     1 ZINC000541000201        1 TEMP              0 ****  ****    0 ROOT


##########                                Name:    ZINC000579444893
##########                DOCK_Rotatable_Bonds:                   8
##########                         Heavy_Atoms:                  26
##########                    Molecular_Weight:             365.494
##########                DOCK_Rotatable_Bonds:                   8
##########                       Formal_Charge:         -0.00999993
##########                     HBond_Acceptors:                   7
##########                        HBond_Donors:                   1
##########                         Heavy_Atoms:                  26
##########                          Grid_Score:          -35.130135
##########                     Grid_vdw_energy:          -33.700302
##########                      Grid_es_energy:           -1.429834
##########           Internal_energy_repulsive:           28.162588

@<TRIPOS>MOLECULE
ZINC000579444893
 58 60 1 0 0
SMALL
USER_CHARGES


@<TRIPOS>ATOM
      1 C1        -12.9159   -1.7238   52.7809 C.3     1  ZINC000579444893   -0.1600
      2 C2        -12.0503   -2.2441   53.9303 C.3     1  ZINC000579444893    0.1700
      3 H3        -11.4242   -3.0614   53.5726 H       1  ZINC000579444893    0.0900
      4 N4        -11.2003   -1.1608   54.4305 N.am    1  ZINC000579444893   -0.7400
      5 C5        -10.1694   -0.7145   53.6860 C.2     1  ZINC000579444893    0.7100
      6 O6         -9.9438   -1.2121   52.5997 O.2     1  ZINC000579444893   -0.5900
      7 N7         -9.3884    0.2832   54.1455 N.am    1  ZINC000579444893   -0.6300
      8 C8         -9.6613    0.8838   55.4535 C.3     1  ZINC000579444893    0.0800
      9 C9         -8.2667    0.7670   53.3369 C.3     1  ZINC000579444893    0.1100
     10 C10        -8.5144    2.2240   52.9411 C.3     1  ZINC000579444893    0.0600
     11 H11        -8.5587    2.8482   53.8335 H       1  ZINC000579444893    0.1000
     12 C12        -9.8378    2.3368   52.1554 C.3     1  ZINC000579444893   -0.1600
     13 C13        -9.5096    3.3931   51.0676 C.3     1  ZINC000579444893    0.0800
     14 H14        -9.6084    4.4042   51.4627 H       1  ZINC000579444893    0.1000
     15 F15       -10.3174    3.2178   49.9389 F       1  ZINC000579444893   -0.2000
     16 C16        -8.0298    3.0642   50.7485 C.3     1  ZINC000579444893    0.0200
     17 N17        -7.4344    2.6934   52.0537 N.3     1  ZINC000579444893   -0.5000
     18 C18        -6.4034    1.6602   51.8875 C.3     1  ZINC000579444893    0.1000
     19 C19        -5.2682    2.2112   51.0637 C.2     1  ZINC000579444893    0.0800
     20 C20        -4.8329    1.7243   49.8787 C.2     1  ZINC000579444893   -0.2500
     21 C21        -3.7660    2.5217   49.4515 C.2     1  ZINC000579444893    0.0400
     22 N22        -3.5680    3.4538   50.3481 N.2     1  ZINC000579444893   -0.2900
     23 N23        -4.5074    3.2820   51.3729 N.pl3   1  ZINC000579444893   -0.3700
     24 C24        -4.6354    4.1126   52.5730 C.3     1  ZINC000579444893    0.0900
     25 C25       -12.9512   -2.7484   55.0595 C.3     1  ZINC000579444893   -0.1000
     26 C26       -13.7524   -3.9916   54.5995 C.3     1  ZINC000579444893   -0.1200
     27 C27       -14.0911   -4.6942   55.9377 C.3     1  ZINC000579444893   -0.1300
     28 C28       -12.8260   -4.4988   56.7984 C.3     1  ZINC000579444893   -0.1300
     29 C29       -12.1011   -3.2616   56.2401 C.3     1  ZINC000579444893   -0.1200
     30 H30       -12.2772   -1.2810   52.0168 H       1  ZINC000579444893    0.0600
     31 H31       -13.4804   -2.5500   52.3486 H       1  ZINC000579444893    0.0700
     32 H32       -13.6067   -0.9701   53.1587 H       1  ZINC000579444893    0.0500
     33 H33       -11.3795   -0.7647   55.2977 H       1  ZINC000579444893    0.4000
     34 H34        -9.1864    0.2881   56.2331 H       1  ZINC000579444893    0.0600
     35 H35        -9.2628    1.8981   55.4779 H       1  ZINC000579444893    0.0800
     36 H36       -10.7376    0.9121   55.6229 H       1  ZINC000579444893    0.0700
     37 H37        -7.3457    0.6994   53.9159 H       1  ZINC000579444893    0.0900
     38 H38        -8.1766    0.1567   52.4383 H       1  ZINC000579444893    0.0900
     39 H39       -10.0978    1.3817   51.6991 H       1  ZINC000579444893    0.1100
     40 H40       -10.6416    2.6873   52.8028 H       1  ZINC000579444893    0.0800
     41 H41        -7.9687    2.2288   50.0510 H       1  ZINC000579444893    0.0600
     42 H42        -7.5264    3.9397   50.3384 H       1  ZINC000579444893    0.0900
     43 H43        -6.0296    1.3592   52.8662 H       1  ZINC000579444893    0.1100
     44 H44        -6.8335    0.7959   51.3814 H       1  ZINC000579444893    0.0500
     45 H45        -5.2374    0.8706   49.3552 H       1  ZINC000579444893    0.1500
     46 H46        -3.2027    2.3902   48.5396 H       1  ZINC000579444893    0.1800
     47 H47        -5.3638    4.9030   52.3918 H       1  ZINC000579444893    0.0800
     48 H48        -4.9684    3.4960   53.4078 H       1  ZINC000579444893    0.0800
     49 H49        -3.6691    4.5568   52.8121 H       1  ZINC000579444893    0.0900
     50 H50       -13.6255   -1.9583   55.3900 H       1  ZINC000579444893    0.0800
     51 H51       -14.6622   -3.6937   54.0785 H       1  ZINC000579444893    0.0700
     52 H52       -13.1385   -4.6355   53.9698 H       1  ZINC000579444893    0.0700
     53 H53       -14.9512   -4.2200   56.4105 H       1  ZINC000579444893    0.0700
     54 H54       -14.2812   -5.7549   55.7742 H       1  ZINC000579444893    0.0700
     55 H55       -13.1044   -4.3306   57.8388 H       1  ZINC000579444893    0.0600
     56 H56       -12.1824   -5.3751   56.7208 H       1  ZINC000579444893    0.0600
     57 H57       -11.1060   -3.5375   55.8914 H       1  ZINC000579444893    0.0600
     58 H58       -12.0279   -2.4929   57.0093 H       1  ZINC000579444893    0.0600
@<TRIPOS>BOND
     1     1     2    1
     2     1    30    1
     3     1    31    1
     4     1    32    1
     5     2     3    1
     6     2     4    1
     7     2    25    1
     8     4     5   am
     9     4    33    1
    10     5     6    2
    11     5     7   am
    12     7     8    1
    13     7     9    1
    14     8    34    1
    15     8    35    1
    16     8    36    1
    17     9    10    1
    18     9    37    1
    19     9    38    1
    20    10    11    1
    21    10    17    1
    22    10    12    1
    23    12    13    1
    24    12    39    1
    25    12    40    1
    26    13    14    1
    27    13    15    1
    28    13    16    1
    29    16    17    1
    30    16    41    1
    31    16    42    1
    32    17    18    1
    33    18    19    1
    34    18    43    1
    35    18    44    1
    36    19    23    1
    37    19    20    2
    38    20    21    1
    39    20    45    1
    40    21    22    2
    41    21    46    1
    42    22    23    1
    43    23    24    1
    44    24    47    1
    45    24    48    1
    46    24    49    1
    47    25    29    1
    48    25    26    1
    49    25    50    1
    50    26    27    1
    51    26    51    1
    52    26    52    1
    53    27    28    1
    54    27    53    1
    55    27    54    1
    56    28    29    1
    57    28    55    1
    58    28    56    1
    59    29    57    1
    60    29    58    1
@<TRIPOS>SUBSTRUCTURE
     1 ZINC000579444893        1 TEMP              0 ****  ****    0 ROOT


##########                                Name:    ZINC000788423111
##########                DOCK_Rotatable_Bonds:                   7
##########                         Heavy_Atoms:                  23
##########                    Molecular_Weight:             399.243
##########                DOCK_Rotatable_Bonds:                   7
##########                       Formal_Charge:         1.04308e-07
##########                     HBond_Acceptors:                   8
##########                        HBond_Donors:                   1
##########                         Heavy_Atoms:                  23
##########                          Grid_Score:          -35.117680
##########                     Grid_vdw_energy:          -32.152130
##########                      Grid_es_energy:           -2.965549
##########           Internal_energy_repulsive:            4.219127

@<TRIPOS>MOLECULE
ZINC000788423111
 35 37 1 0 0
SMALL
USER_CHARGES


@<TRIPOS>ATOM
      1 O1        -10.4068   -0.7305   59.7392 O.3     1  ZINC000788423111   -0.5400
      2 C2        -10.1677   -1.8014   60.6547 C.3     1  ZINC000788423111    0.1000
      3 H3        -11.1167   -2.2582   60.9355 H       1  ZINC000788423111    0.1300
      4 C4         -9.4737   -1.2578   61.9052 C.3     1  ZINC000788423111    0.0300
      5 O5        -10.3632   -0.3819   62.6009 O.3     1  ZINC000788423111   -0.2900
      6 C6         -9.8010    0.5432   63.4223 C.ar    1  ZINC000788423111    0.1700
      7 C7        -10.1961    1.8703   63.3467 C.ar    1  ZINC000788423111   -0.2400
      8 C8         -9.6220    2.8108   64.1840 C.ar    1  ZINC000788423111    0.1500
      9 F9        -10.0063    4.1040   64.1113 F       1  ZINC000788423111   -0.1300
     10 C10        -8.6543    2.4266   65.0967 C.ar    1  ZINC000788423111   -0.1600
     11 C11        -8.2592    1.1030   65.1723 C.ar    1  ZINC000788423111   -0.0300
     12 Br12       -6.9373    0.5815   66.4199 Br      1  ZINC000788423111   -0.0200
     13 C13        -8.8346    0.1600   64.3414 C.ar    1  ZINC000788423111   -0.1300
     14 C14        -9.2735   -2.8502   59.9905 C.3     1  ZINC000788423111    0.1000
     15 N15       -10.0738   -3.6623   59.0706 N.pl3   1  ZINC000788423111   -0.1300
     16 N16        -9.8604   -4.9010   58.7933 N.2     1  ZINC000788423111   -0.0500
     17 N17       -10.7506   -5.3019   57.9503 N.2     1  ZINC000788423111   -0.2600
     18 C18       -11.5545   -4.2584   57.6940 C.2     1  ZINC000788423111    0.2400
     19 C19       -12.7206   -4.2434   56.7840 C.2     1  ZINC000788423111   -0.1300
     20 C20       -13.2175   -5.3166   56.1386 C.2     1  ZINC000788423111   -0.0800
     21 C21       -14.3136   -5.0544   55.3424 C.2     1  ZINC000788423111   -0.1400
     22 C22       -14.7142   -3.7799   55.3327 C.2     1  ZINC000788423111   -0.2000
     23 S23       -13.6777   -2.8232   56.3831 S.3     1  ZINC000788423111    0.1700
     24 N24       -11.1049   -3.2496   58.4167 N.2     1  ZINC000788423111   -0.2900
     25 H25        -9.6064   -0.3829   59.3227 H       1  ZINC000788423111    0.3800
     26 H26        -9.1970   -2.0868   62.5566 H       1  ZINC000788423111    0.0900
     27 H27        -8.5778   -0.7095   61.6143 H       1  ZINC000788423111    0.0800
     28 H28       -10.9511    2.1697   62.6347 H       1  ZINC000788423111    0.1500
     29 H29        -8.2071    3.1612   65.7500 H       1  ZINC000788423111    0.1500
     30 H30        -8.5259   -0.8731   64.4014 H       1  ZINC000788423111    0.1500
     31 H31        -8.4781   -2.3514   59.4367 H       1  ZINC000788423111    0.1300
     32 H32        -8.8364   -3.4920   60.7554 H       1  ZINC000788423111    0.1300
     33 H33       -12.7913   -6.3040   56.2363 H       1  ZINC000788423111    0.1500
     34 H34       -14.8107   -5.8229   54.7690 H       1  ZINC000788423111    0.1500
     35 H35       -15.5511   -3.3959   54.7685 H       1  ZINC000788423111    0.1700
@<TRIPOS>BOND
     1     1     2    1
     2     1    25    1
     3     2     3    1
     4     2     4    1
     5     2    14    1
     6     4     5    1
     7     4    26    1
     8     4    27    1
     9     5     6    1
    10     6    13   ar
    11     6     7   ar
    12     7     8   ar
    13     7    28    1
    14     8     9    1
    15     8    10   ar
    16    10    11   ar
    17    10    29    1
    18    11    12    1
    19    11    13   ar
    20    13    30    1
    21    14    15    1
    22    14    31    1
    23    14    32    1
    24    15    24    1
    25    15    16    1
    26    16    17    2
    27    17    18    1
    28    18    19    1
    29    18    24    2
    30    19    23    1
    31    19    20    2
    32    20    21    1
    33    20    33    1
    34    21    22    2
    35    21    34    1
    36    22    23    1
    37    22    35    1
@<TRIPOS>SUBSTRUCTURE
     1 ZINC000788423111        1 TEMP              0 ****  ****    0 ROOT


##########                                Name:    ZINC000518242403
##########                DOCK_Rotatable_Bonds:                   6
##########                         Heavy_Atoms:                  27
##########                    Molecular_Weight:             370.405
##########                DOCK_Rotatable_Bonds:                   6
##########                       Formal_Charge:          -0.0200004
##########                     HBond_Acceptors:                   7
##########                        HBond_Donors:                   1
##########                         Heavy_Atoms:                  27
##########                          Grid_Score:          -35.110874
##########                     Grid_vdw_energy:          -34.255306
##########                      Grid_es_energy:           -0.855568
##########           Internal_energy_repulsive:           13.606779

@<TRIPOS>MOLECULE
ZINC000518242403
 49 52 1 0 0
SMALL
USER_CHARGES


@<TRIPOS>ATOM
      1 C1         -4.6145    4.4459   52.7735 C.3     1  ZINC000518242403   -0.1800
      2 C2         -4.5249    2.9186   52.7601 C.3     1  ZINC000518242403    0.1000
      3 N3         -5.0410    2.4104   51.4868 N.am    1  ZINC000518242403   -0.6200
      4 C4         -4.2604    2.5823   50.2590 C.3     1  ZINC000518242403    0.1500
      5 C5         -2.8069    2.1813   50.5185 C.3     1  ZINC000518242403    0.0300
      6 H6         -2.7592    1.5035   51.3708 H       1  ZINC000518242403    0.0900
      7 C7         -2.2309    1.4902   49.2751 C.3     1  ZINC000518242403    0.0300
      8 O8         -0.8691    1.1415   49.5465 O.3     1  ZINC000518242403   -0.3000
      9 C9         -0.0945    2.1022   50.1204 C.ar    1  ZINC000518242403    0.0500
     10 C10         1.2859    1.9773   50.0807 C.ar    1  ZINC000518242403   -0.1100
     11 C11         2.0857    2.9434   50.6621 C.ar    1  ZINC000518242403   -0.1200
     12 C12         1.5121    4.0362   51.2841 C.ar    1  ZINC000518242403   -0.1200
     13 C13         0.1365    4.1676   51.3258 C.ar    1  ZINC000518242403   -0.1100
     14 C14        -0.6715    3.2028   50.7437 C.ar    1  ZINC000518242403    0.0500
     15 O15        -2.0241    3.3498   50.7864 O.3     1  ZINC000518242403   -0.3000
     16 C16        -6.2339    1.7846   51.4448 C.2     1  ZINC000518242403    0.7100
     17 O17        -6.6616    1.3613   50.3881 O.2     1  ZINC000518242403   -0.5700
     18 N18        -6.9528    1.6279   52.5740 N.am    1  ZINC000518242403   -0.6800
     19 C19        -8.1932    0.9772   52.5303 C.ar    1  ZINC000518242403    0.1700
     20 C20        -8.2482   -0.4079   52.4603 C.ar    1  ZINC000518242403   -0.1000
     21 C21        -9.4744   -1.0505   52.4176 C.ar    1  ZINC000518242403    0.0500
     22 C22       -10.6503   -0.3047   52.4451 C.ar    1  ZINC000518242403    0.0200
     23 C23       -10.5909    1.0778   52.5144 C.ar    1  ZINC000518242403   -0.0800
     24 C24        -9.3672    1.7177   52.5629 C.ar    1  ZINC000518242403   -0.1000
     25 C25        -9.3066    3.2216   52.6381 C.3     1  ZINC000518242403   -0.1100
     26 O26       -11.7119   -1.1627   52.3933 O.3     1  ZINC000518242403   -0.3100
     27 C27       -11.1735   -2.4123   51.9224 C.3     1  ZINC000518242403    0.2100
     28 O28        -9.7988   -2.3747   52.3488 O.3     1  ZINC000518242403   -0.3100
     29 H29        -4.0222    4.8519   51.9534 H       1  ZINC000518242403    0.0600
     30 H30        -5.6546    4.7500   52.6558 H       1  ZINC000518242403    0.0600
     31 H31        -4.2305    4.8241   53.7210 H       1  ZINC000518242403    0.0700
     32 H32        -3.4847    2.6148   52.8779 H       1  ZINC000518242403    0.1000
     33 H33        -5.1171    2.5127   53.5802 H       1  ZINC000518242403    0.0700
     34 H34        -4.6763    1.9522   49.4728 H       1  ZINC000518242403    0.1100
     35 H35        -4.2992    3.6259   49.9469 H       1  ZINC000518242403    0.0900
     36 H36        -2.8045    0.5895   49.0562 H       1  ZINC000518242403    0.1300
     37 H37        -2.2737    2.1698   48.4239 H       1  ZINC000518242403    0.0800
     38 H38         1.7366    1.1242   49.5955 H       1  ZINC000518242403    0.1300
     39 H39         3.1606    2.8442   50.6300 H       1  ZINC000518242403    0.1300
     40 H40         2.1394    4.7886   51.7386 H       1  ZINC000518242403    0.1300
     41 H41        -0.3093    5.0224   51.8125 H       1  ZINC000518242403    0.1300
     42 H42        -6.6117    1.9655   53.4169 H       1  ZINC000518242403    0.4100
     43 H43        -7.3352   -0.9843   52.4387 H       1  ZINC000518242403    0.1500
     44 H44       -11.5028    1.6561   52.5357 H       1  ZINC000518242403    0.1400
     45 H45        -9.3061    3.5334   53.6826 H       1  ZINC000518242403    0.0800
     46 H46        -8.3957    3.5732   52.1536 H       1  ZINC000518242403    0.0700
     47 H47       -10.1740    3.6459   52.1326 H       1  ZINC000518242403    0.0800
     48 H48       -11.6945   -3.2517   52.3828 H       1  ZINC000518242403    0.1300
     49 H49       -11.2360   -2.4710   50.8358 H       1  ZINC000518242403    0.0900
@<TRIPOS>BOND
     1     1     2    1
     2     1    29    1
     3     1    30    1
     4     1    31    1
     5     2     3    1
     6     2    32    1
     7     2    33    1
     8     3     4    1
     9     3    16   am
    10     4     5    1
    11     4    34    1
    12     4    35    1
    13     5     6    1
    14     5    15    1
    15     5     7    1
    16     7     8    1
    17     7    36    1
    18     7    37    1
    19     8     9    1
    20     9    14   ar
    21     9    10   ar
    22    10    11   ar
    23    10    38    1
    24    11    12   ar
    25    11    39    1
    26    12    13   ar
    27    12    40    1
    28    13    14   ar
    29    13    41    1
    30    14    15    1
    31    16    17    2
    32    16    18   am
    33    18    19    1
    34    18    42    1
    35    19    24   ar
    36    19    20   ar
    37    20    21   ar
    38    20    43    1
    39    21    28    1
    40    21    22   ar
    41    22    23   ar
    42    22    26    1
    43    23    24   ar
    44    23    44    1
    45    24    25    1
    46    25    45    1
    47    25    46    1
    48    25    47    1
    49    26    27    1
    50    27    28    1
    51    27    48    1
    52    27    49    1
@<TRIPOS>SUBSTRUCTURE
     1 ZINC000518242403        1 TEMP              0 ****  ****    0 ROOT


##########                                Name:    ZINC000543625960
##########                DOCK_Rotatable_Bonds:                   8
##########                         Heavy_Atoms:                  29
##########                    Molecular_Weight:             416.544
##########                DOCK_Rotatable_Bonds:                   8
##########                       Formal_Charge:           -0.010001
##########                     HBond_Acceptors:                   8
##########                        HBond_Donors:                   2
##########                         Heavy_Atoms:                  29
##########                          Grid_Score:          -35.089512
##########                     Grid_vdw_energy:          -33.946560
##########                      Grid_es_energy:           -1.142952
##########           Internal_energy_repulsive:           27.103838

@<TRIPOS>MOLECULE
ZINC000543625960
 57 59 1 0 0
SMALL
USER_CHARGES


@<TRIPOS>ATOM
      1 C1         -2.6315    2.6525   50.3586 C.3     1  ZINC000543625960   -0.1500
      2 C2         -4.0766    3.1206   50.5415 C.3     1  ZINC000543625960   -0.1300
      3 C3         -4.9980    1.9033   50.6428 C.3     1  ZINC000543625960    0.1500
      4 H4         -5.1198    1.6258   51.6898 H       1  ZINC000543625960    0.0800
      5 C5         -4.3830    0.7326   49.8731 C.3     1  ZINC000543625960   -0.1700
      6 N6         -6.3056    2.2315   50.0694 N.am    1  ZINC000543625960   -1.1100
      7 S7         -7.3332    3.2470   50.8785 S.o2    1  ZINC000543625960    2.7000
      8 O8         -6.5952    4.4301   51.1524 O.2     1  ZINC000543625960   -0.9600
      9 O9         -8.5548    3.2437   50.1525 O.2     1  ZINC000543625960   -0.9500
     10 C10        -7.6794    2.5042   52.4384 C.ar    1  ZINC000543625960   -0.6600
     11 C11        -7.0405    2.9593   53.5769 C.ar    1  ZINC000543625960   -0.0400
     12 C12        -7.3093    2.3789   54.8031 C.ar    1  ZINC000543625960   -0.1200
     13 C13        -8.2174    1.3425   54.8938 C.ar    1  ZINC000543625960   -0.0600
     14 C14        -8.8612    0.8833   53.7520 C.ar    1  ZINC000543625960    0.1500
     15 N15        -9.7820   -0.1669   53.8406 N.am    1  ZINC000543625960   -0.6800
     16 C16       -11.0820    0.0514   53.5600 C.2     1  ZINC000543625960    0.7200
     17 O17       -11.4549    1.1606   53.2300 O.2     1  ZINC000543625960   -0.5600
     18 N18       -11.9689   -0.9600   53.6453 N.am    1  ZINC000543625960   -0.6300
     19 C19       -11.6548   -2.3477   54.0313 C.3     1  ZINC000543625960    0.0900
     20 C20       -12.9886   -2.9201   54.5727 C.3     1  ZINC000543625960   -0.1000
     21 H21       -13.0142   -4.0059   54.4795 H       1  ZINC000543625960    0.1000
     22 C22       -13.2209   -2.4915   56.0230 C.3     1  ZINC000543625960   -0.1500
     23 C23       -14.0207   -2.2560   53.6236 C.3     1  ZINC000543625960   -0.1200
     24 C24       -13.4105   -0.8606   53.3748 C.3     1  ZINC000543625960    0.2000
     25 H25       -13.8686   -0.1313   54.0429 H       1  ZINC000543625960    0.0900
     26 C26       -13.6324   -0.4522   51.9413 C.ar    1  ZINC000543625960   -0.1400
     27 C27       -14.1413    0.8013   51.6392 C.ar    1  ZINC000543625960   -0.0600
     28 C28       -14.3284    1.1338   50.3060 C.ar    1  ZINC000543625960   -0.1700
     29 C29       -14.0037    0.2114   49.3298 C.ar    1  ZINC000543625960    0.1000
     30 N30       -13.5214   -0.9725   49.6542 N.ar    1  ZINC000543625960   -0.4800
     31 C31       -13.3255   -1.3209   50.9107 C.ar    1  ZINC000543625960    0.1200
     32 C32        -8.5930    1.4716   52.5234 C.ar    1  ZINC000543625960   -0.0500
     33 H33        -1.9751    3.5197   50.2864 H       1  ZINC000543625960    0.0600
     34 H34        -2.3360    2.0431   51.2127 H       1  ZINC000543625960    0.0600
     35 H35        -2.5539    2.0611   49.4462 H       1  ZINC000543625960    0.0500
     36 H36        -4.1542    3.7119   51.4539 H       1  ZINC000543625960    0.0700
     37 H37        -4.3721    3.7299   49.6874 H       1  ZINC000543625960    0.0800
     38 H38        -3.4102    0.4884   50.2998 H       1  ZINC000543625960    0.0700
     39 H39        -5.0395   -0.1345   49.9453 H       1  ZINC000543625960    0.0700
     40 H40        -4.2613    1.0101   48.8261 H       1  ZINC000543625960    0.0600
     41 H41        -6.5694    1.8539   49.2157 H       1  ZINC000543625960    0.4200
     42 H42        -6.3296    3.7695   53.5086 H       1  ZINC000543625960    0.1400
     43 H43        -6.8084    2.7364   55.6905 H       1  ZINC000543625960    0.1400
     44 H44        -8.4265    0.8892   55.8515 H       1  ZINC000543625960    0.1400
     45 H45        -9.4846   -1.0518   54.1038 H       1  ZINC000543625960    0.4100
     46 H46       -11.3223   -2.9170   53.1633 H       1  ZINC000543625960    0.0700
     47 H47       -10.8922   -2.3616   54.8100 H       1  ZINC000543625960    0.0800
     48 H48       -13.2335   -1.4032   56.0826 H       1  ZINC000543625960    0.0600
     49 H49       -14.1762   -2.8856   56.3698 H       1  ZINC000543625960    0.0600
     50 H50       -12.4184   -2.8804   56.6498 H       1  ZINC000543625960    0.0600
     51 H51       -14.1042   -2.8159   52.6921 H       1  ZINC000543625960    0.0800
     52 H52       -14.9920   -2.1684   54.1105 H       1  ZINC000543625960    0.0900
     53 H53       -14.3866    1.5020   52.4234 H       1  ZINC000543625960    0.1300
     54 H54       -14.7234    2.1016   50.0340 H       1  ZINC000543625960    0.1400
     55 H55       -14.1468    0.4626   48.2893 H       1  ZINC000543625960    0.1600
     56 H56       -12.9287   -2.2994   51.1377 H       1  ZINC000543625960    0.1400
     57 H57        -9.0920    1.1168   51.6336 H       1  ZINC000543625960    0.1400
@<TRIPOS>BOND
     1     1     2    1
     2     1    33    1
     3     1    34    1
     4     1    35    1
     5     2     3    1
     6     2    36    1
     7     2    37    1
     8     3     4    1
     9     3     5    1
    10     3     6    1
    11     5    38    1
    12     5    39    1
    13     5    40    1
    14     6     7   am
    15     6    41    1
    16     7     8    2
    17     7     9    2
    18     7    10    1
    19    10    32   ar
    20    10    11   ar
    21    11    12   ar
    22    11    42    1
    23    12    13   ar
    24    12    43    1
    25    13    14   ar
    26    13    44    1
    27    14    15    1
    28    14    32   ar
    29    15    16   am
    30    15    45    1
    31    16    17    2
    32    16    18   am
    33    18    24    1
    34    18    19    1
    35    19    20    1
    36    19    46    1
    37    19    47    1
    38    20    21    1
    39    20    22    1
    40    20    23    1
    41    22    48    1
    42    22    49    1
    43    22    50    1
    44    23    24    1
    45    23    51    1
    46    23    52    1
    47    24    25    1
    48    24    26    1
    49    26    31   ar
    50    26    27   ar
    51    27    28   ar
    52    27    53    1
    53    28    29   ar
    54    28    54    1
    55    29    30   ar
    56    29    55    1
    57    30    31   ar
    58    31    56    1
    59    32    57    1
@<TRIPOS>SUBSTRUCTURE
     1 ZINC000543625960        1 TEMP              0 ****  ****    0 ROOT


##########                                Name:    ZINC001041713551
##########                DOCK_Rotatable_Bonds:                  10
##########                         Heavy_Atoms:                  22
##########                    Molecular_Weight:             330.448
##########                DOCK_Rotatable_Bonds:                  10
##########                       Formal_Charge:          -0.0100006
##########                     HBond_Acceptors:                   7
##########                        HBond_Donors:                   2
##########                         Heavy_Atoms:                  22
##########                          Grid_Score:          -35.076729
##########                     Grid_vdw_energy:          -30.580301
##########                      Grid_es_energy:           -4.496428
##########           Internal_energy_repulsive:            9.709751

@<TRIPOS>MOLECULE
ZINC001041713551
 48 49 1 0 0
SMALL
USER_CHARGES


@<TRIPOS>ATOM
      1 C1         -7.9390    2.6815   64.2193 C.3     1  ZINC001041713551   -0.1500
      2 C2         -9.0818    3.6982   64.2574 C.3     1  ZINC001041713551   -0.1100
      3 C3        -10.3898    2.9828   64.6011 C.3     1  ZINC001041713551   -0.1000
      4 S4        -11.4932    3.0154   63.1617 S.3     1  ZINC001041713551   -0.1800
      5 C5        -10.4582    2.3312   61.8384 C.3     1  ZINC001041713551   -0.1300
      6 C6        -10.3342    0.8400   62.0178 C.2     1  ZINC001041713551    0.5300
      7 O7        -10.8727    0.2955   62.9583 O.2     1  ZINC001041713551   -0.5100
      8 N8         -9.6247    0.1116   61.1332 N.am    1  ZINC001041713551   -0.7300
      9 C9         -9.5055   -1.3383   61.3067 C.3     1  ZINC001041713551    0.1000
     10 C10        -9.5617   -2.0219   59.9391 C.3     1  ZINC001041713551    0.0900
     11 O11        -8.5785   -1.5266   59.0279 O.3     1  ZINC001041713551   -0.5200
     12 C12        -9.6207   -3.5582   60.0161 C.3     1  ZINC001041713551    0.0900
     13 N13       -10.6274   -3.4733   58.9403 N.am    1  ZINC001041713551   -0.6400
     14 C14       -11.0548   -4.3147   57.9780 C.2     1  ZINC001041713551    0.5500
     15 O15       -10.5708   -5.4226   57.8824 O.2     1  ZINC001041713551   -0.5100
     16 C16       -12.1339   -3.8787   57.0207 C.3     1  ZINC001041713551    0.0800
     17 H17       -12.5869   -2.9547   57.3799 H       1  ZINC001041713551    0.0800
     18 C18       -13.2042   -4.9692   56.9269 C.3     1  ZINC001041713551   -0.1500
     19 C19       -14.2660   -4.5454   55.9074 C.3     1  ZINC001041713551   -0.1200
     20 C20       -13.5872   -4.2797   54.5603 C.3     1  ZINC001041713551   -0.1600
     21 C21       -12.5021   -3.2159   54.7454 C.3     1  ZINC001041713551    0.0600
     22 O22       -11.5645   -3.6593   55.7285 O.3     1  ZINC001041713551   -0.3600
     23 C23       -10.9784   -2.0972   59.3416 C.3     1  ZINC001041713551    0.1200
     24 H24        -8.1499    1.9261   63.4623 H       1  ZINC001041713551    0.0600
     25 H25        -7.0073    3.1912   63.9745 H       1  ZINC001041713551    0.0600
     26 H26        -7.8460    2.2028   65.1941 H       1  ZINC001041713551    0.0600
     27 H27        -8.8710    4.4535   65.0144 H       1  ZINC001041713551    0.0700
     28 H28        -9.1748    4.1769   63.2825 H       1  ZINC001041713551    0.0700
     29 H29       -10.1778    1.9487   64.8731 H       1  ZINC001041713551    0.0800
     30 H30       -10.8707    3.4875   65.4390 H       1  ZINC001041713551    0.0800
     31 H31       -10.9160    2.5440   60.8723 H       1  ZINC001041713551    0.1100
     32 H32        -9.4683    2.7857   61.8795 H       1  ZINC001041713551    0.1100
     33 H33        -9.1929    0.5472   60.3818 H       1  ZINC001041713551    0.4000
     34 H34        -8.5562   -1.5695   61.7898 H       1  ZINC001041713551    0.0900
     35 H35       -10.3261   -1.6986   61.9270 H       1  ZINC001041713551    0.0900
     36 H36        -8.3612   -0.5927   59.1532 H       1  ZINC001041713551    0.3800
     37 H37        -8.6955   -4.0492   59.7142 H       1  ZINC001041713551    0.0900
     38 H38       -10.0161   -3.9360   60.9589 H       1  ZINC001041713551    0.1000
     39 H39       -12.7446   -5.9043   56.6067 H       1  ZINC001041713551    0.0800
     40 H40       -13.6705   -5.1069   57.9026 H       1  ZINC001041713551    0.0800
     41 H41       -15.0015   -5.3419   55.7944 H       1  ZINC001041713551    0.0700
     42 H42       -14.7603   -3.6371   56.2520 H       1  ZINC001041713551    0.0700
     43 H43       -13.1352   -5.2008   54.1922 H       1  ZINC001041713551    0.0700
     44 H44       -14.3273   -3.9243   53.8432 H       1  ZINC001041713551    0.0800
     45 H45       -11.9867   -3.0536   53.7987 H       1  ZINC001041713551    0.1000
     46 H46       -12.9599   -2.2831   55.0747 H       1  ZINC001041713551    0.0500
     47 H47       -11.7726   -2.0457   60.0864 H       1  ZINC001041713551    0.1100
     48 H48       -11.1372   -1.4214   58.5011 H       1  ZINC001041713551    0.1000
@<TRIPOS>BOND
     1     1     2    1
     2     1    24    1
     3     1    25    1
     4     1    26    1
     5     2     3    1
     6     2    27    1
     7     2    28    1
     8     3     4    1
     9     3    29    1
    10     3    30    1
    11     4     5    1
    12     5     6    1
    13     5    31    1
    14     5    32    1
    15     6     7    2
    16     6     8   am
    17     8     9    1
    18     8    33    1
    19     9    10    1
    20     9    34    1
    21     9    35    1
    22    10    23    1
    23    10    11    1
    24    10    12    1
    25    11    36    1
    26    12    13    1
    27    12    37    1
    28    12    38    1
    29    13    14   am
    30    13    23    1
    31    14    15    2
    32    14    16    1
    33    16    17    1
    34    16    22    1
    35    16    18    1
    36    18    19    1
    37    18    39    1
    38    18    40    1
    39    19    20    1
    40    19    41    1
    41    19    42    1
    42    20    21    1
    43    20    43    1
    44    20    44    1
    45    21    22    1
    46    21    45    1
    47    21    46    1
    48    23    47    1
    49    23    48    1
@<TRIPOS>SUBSTRUCTURE
     1 ZINC001041713551        1 TEMP              0 ****  ****    0 ROOT


##########                                Name:    ZINC000534799364
##########                DOCK_Rotatable_Bonds:                   4
##########                         Heavy_Atoms:                  29
##########                    Molecular_Weight:             391.491
##########                DOCK_Rotatable_Bonds:                   4
##########                       Formal_Charge:           0.0199998
##########                     HBond_Acceptors:                   6
##########                        HBond_Donors:                   0
##########                         Heavy_Atoms:                  29
##########                          Grid_Score:          -35.064796
##########                     Grid_vdw_energy:          -33.706806
##########                      Grid_es_energy:           -1.357989
##########           Internal_energy_repulsive:           21.229338

@<TRIPOS>MOLECULE
ZINC000534799364
 55 59 1 0 0
SMALL
USER_CHARGES


@<TRIPOS>ATOM
      1 C1          4.0985    0.9701   51.6186 C.3     1  ZINC000534799364   -0.1100
      2 C2          4.1989    2.4716   51.5387 C.ar    1  ZINC000534799364   -0.0200
      3 C3          5.2919    3.1387   52.0664 C.ar    1  ZINC000534799364   -0.1700
      4 C4          5.3505    4.5172   51.9751 C.ar    1  ZINC000534799364    0.1000
      5 N5          4.3832    5.1996   51.3945 N.ar    1  ZINC000534799364   -0.4800
      6 C6          3.3257    4.6046   50.8794 C.ar    1  ZINC000534799364    0.0800
      7 C7          3.1975    3.2224   50.9269 C.ar    1  ZINC000534799364    0.0300
      8 N8          2.0756    2.5953   50.3795 N.3     1  ZINC000534799364   -0.5000
      9 C9          1.5958    3.3166   49.1924 C.3     1  ZINC000534799364    0.0600
     10 C10         0.4184    2.5561   48.5779 C.3     1  ZINC000534799364    0.0600
     11 N11        -0.6507    2.4229   49.5774 N.3     1  ZINC000534799364   -0.5300
     12 C12        -1.8304    1.7635   49.0017 C.3     1  ZINC000534799364    0.1400
     13 C13        -2.9824    1.8615   49.9684 C.2     1  ZINC000534799364    0.1100
     14 N14        -3.9427    0.9845   50.1073 N.2     1  ZINC000534799364   -0.2800
     15 N15        -4.8124    1.4419   51.1045 N.pl3   1  ZINC000534799364   -0.3100
     16 C16        -5.9697    0.7890   51.5534 C.ar    1  ZINC000534799364    0.1500
     17 C17        -6.3783   -0.3934   50.9515 C.ar    1  ZINC000534799364   -0.1000
     18 C18        -7.5181   -1.0349   51.3949 C.ar    1  ZINC000534799364   -0.1300
     19 C19        -8.2533   -0.4994   52.4391 C.ar    1  ZINC000534799364    0.1000
     20 F20        -9.3679   -1.1284   52.8717 F       1  ZINC000534799364   -0.1300
     21 C21        -7.8472    0.6801   53.0407 C.ar    1  ZINC000534799364   -0.1300
     22 C22        -6.7047    1.3214   52.6039 C.ar    1  ZINC000534799364   -0.0800
     23 C23        -4.3383    2.6268   51.5593 C.2     1  ZINC000534799364    0.0500
     24 C24        -3.2053    2.9056   50.8773 C.2     1  ZINC000534799364   -0.2200
     25 C25        -2.6249    4.2237   51.3429 C.3     1  ZINC000534799364   -0.0400
     26 C26        -3.7775    4.9254   52.0937 C.3     1  ZINC000534799364   -0.1200
     27 C27        -4.6355    3.7261   52.5558 C.3     1  ZINC000534799364   -0.0500
     28 C28        -0.1710    1.7016   50.7645 C.3     1  ZINC000534799364    0.0600
     29 C29         1.0065    2.4621   51.3790 C.3     1  ZINC000534799364    0.0600
     30 H30         4.4801    0.5308   50.6969 H       1  ZINC000534799364    0.0800
     31 H31         4.6868    0.6110   52.4630 H       1  ZINC000534799364    0.0600
     32 H32         3.0558    0.6824   51.7537 H       1  ZINC000534799364    0.0800
     33 H33         6.0890    2.5886   52.5443 H       1  ZINC000534799364    0.1400
     34 H34         6.2004    5.0423   52.3854 H       1  ZINC000534799364    0.1600
     35 H35         2.5534    5.1974   50.4119 H       1  ZINC000534799364    0.1500
     36 H36         1.2720    4.3167   49.4807 H       1  ZINC000534799364    0.0500
     37 H37         2.4015    3.3913   48.4621 H       1  ZINC000534799364    0.0800
     38 H38         0.0424    3.1043   47.7141 H       1  ZINC000534799364    0.0900
     39 H39         0.7488    1.5657   48.2647 H       1  ZINC000534799364    0.0500
     40 H40        -2.0992    2.2525   48.0653 H       1  ZINC000534799364    0.1000
     41 H41        -1.6037    0.7144   48.8118 H       1  ZINC000534799364    0.0500
     42 H42        -5.8053   -0.8111   50.1369 H       1  ZINC000534799364    0.1400
     43 H43        -7.8365   -1.9545   50.9266 H       1  ZINC000534799364    0.1500
     44 H44        -8.4221    1.0965   53.8547 H       1  ZINC000534799364    0.1500
     45 H45        -6.3882    2.2409   53.0735 H       1  ZINC000534799364    0.1400
     46 H46        -1.7845    4.0510   52.0152 H       1  ZINC000534799364    0.0800
     47 H47        -2.3101    4.8220   50.4878 H       1  ZINC000534799364    0.0700
     48 H48        -3.4008    5.4854   52.9496 H       1  ZINC000534799364    0.0800
     49 H49        -4.3409    5.5743   51.4231 H       1  ZINC000534799364    0.0800
     50 H50        -5.6941    3.9841   52.5271 H       1  ZINC000534799364    0.0800
     51 H51        -4.3468    3.4186   53.5609 H       1  ZINC000534799364    0.0900
     52 H52        -0.9767    1.6270   51.4949 H       1  ZINC000534799364    0.0900
     53 H53         0.1528    0.7016   50.4761 H       1  ZINC000534799364    0.0500
     54 H54         1.3824    1.9139   52.2429 H       1  ZINC000534799364    0.0800
     55 H55         0.6760    3.4525   51.6921 H       1  ZINC000534799364    0.0500
@<TRIPOS>BOND
     1     1     2    1
     2     1    30    1
     3     1    31    1
     4     1    32    1
     5     2     7   ar
     6     2     3   ar
     7     3     4   ar
     8     3    33    1
     9     4     5   ar
    10     4    34    1
    11     5     6   ar
    12     6     7   ar
    13     6    35    1
    14     7     8    1
    15     8    29    1
    16     8     9    1
    17     9    10    1
    18     9    36    1
    19     9    37    1
    20    10    11    1
    21    10    38    1
    22    10    39    1
    23    11    12    1
    24    11    28    1
    25    12    13    1
    26    12    40    1
    27    12    41    1
    28    13    24    1
    29    13    14    2
    30    14    15    1
    31    15    16    1
    32    15    23    1
    33    16    22   ar
    34    16    17   ar
    35    17    18   ar
    36    17    42    1
    37    18    19   ar
    38    18    43    1
    39    19    20    1
    40    19    21   ar
    41    21    22   ar
    42    21    44    1
    43    22    45    1
    44    23    27    1
    45    23    24    2
    46    24    25    1
    47    25    26    1
    48    25    46    1
    49    25    47    1
    50    26    27    1
    51    26    48    1
    52    26    49    1
    53    27    50    1
    54    27    51    1
    55    28    29    1
    56    28    52    1
    57    28    53    1
    58    29    54    1
    59    29    55    1
@<TRIPOS>SUBSTRUCTURE
     1 ZINC000534799364        1 TEMP              0 ****  ****    0 ROOT


##########                                Name:    ZINC000066361645
##########                DOCK_Rotatable_Bonds:                   8
##########                         Heavy_Atoms:                  27
##########                    Molecular_Weight:             392.519
##########                DOCK_Rotatable_Bonds:                   8
##########                       Formal_Charge:           0.0100004
##########                     HBond_Acceptors:                   7
##########                        HBond_Donors:                   2
##########                         Heavy_Atoms:                  27
##########                          Grid_Score:          -35.064613
##########                     Grid_vdw_energy:          -32.464149
##########                      Grid_es_energy:           -2.600462
##########           Internal_energy_repulsive:           16.319527

@<TRIPOS>MOLECULE
ZINC000066361645
 55 57 1 0 0
SMALL
USER_CHARGES


@<TRIPOS>ATOM
      1 C1         -8.9001    1.7219   55.7958 C.3     1  ZINC000066361645   -0.1400
      2 S2        -10.2812    2.1527   54.7015 S.3     1  ZINC000066361645   -0.1100
      3 C3        -10.8369    0.5822   54.1277 C.ar    1  ZINC000066361645   -0.1200
      4 C4        -11.7841   -0.1264   54.8516 C.ar    1  ZINC000066361645   -0.1100
      5 C5        -12.2230   -1.3627   54.4003 C.ar    1  ZINC000066361645    0.0500
      6 C6        -11.7145   -1.8919   53.2205 C.ar    1  ZINC000066361645    0.0700
      7 C7        -10.7656   -1.1856   52.4958 C.ar    1  ZINC000066361645   -0.1100
      8 C8        -10.3293    0.0521   52.9420 C.ar    1  ZINC000066361645    0.1800
      9 N9         -9.3698    0.7654   52.2077 N.am    1  ZINC000066361645   -0.6600
     10 C10        -8.1285    0.2634   52.0542 C.2     1  ZINC000066361645    0.5100
     11 O11        -7.8408   -0.8053   52.5510 O.2     1  ZINC000066361645   -0.5000
     12 C12        -7.0981    1.0295   51.2655 C.3     1  ZINC000066361645   -0.1500
     13 C13        -6.5337    2.1608   52.1272 C.3     1  ZINC000066361645    0.1600
     14 H14        -6.8784    2.0417   53.1543 H       1  ZINC000066361645    0.1000
     15 C15        -7.0144    3.5066   51.5807 C.3     1  ZINC000066361645   -0.1600
     16 N16        -5.0698    2.1155   52.0949 N.am    1  ZINC000066361645   -0.7200
     17 C17        -4.4205    2.1440   50.9141 C.2     1  ZINC000066361645    0.5300
     18 O18        -5.0483    2.2084   49.8784 O.2     1  ZINC000066361645   -0.5400
     19 C19        -2.9148    2.0957   50.8808 C.3     1  ZINC000066361645   -0.1100
     20 C20        -2.4551    1.3970   49.5997 C.3     1  ZINC000066361645   -0.1100
     21 C21        -0.9262    1.3479   49.5659 C.3     1  ZINC000066361645   -0.1200
     22 C22        -0.3694    2.7727   49.5977 C.3     1  ZINC000066361645   -0.1200
     23 C23        -0.8291    3.4714   50.8789 C.3     1  ZINC000066361645   -0.1200
     24 C24        -2.3580    3.5205   50.9126 C.3     1  ZINC000066361645   -0.1000
     25 O25       -12.1402   -3.1011   52.7590 O.3     1  ZINC000066361645   -0.3000
     26 C26       -12.8115   -3.9484   53.6976 C.3     1  ZINC000066361645    0.0200
     27 C27       -13.8441   -3.1027   54.4551 C.3     1  ZINC000066361645    0.0200
     28 O28       -13.1510   -2.0453   55.1269 O.3     1  ZINC000066361645   -0.3100
     29 H29        -9.2613    1.0848   56.6031 H       1  ZINC000066361645    0.0900
     30 H30        -8.1377    1.1901   55.2266 H       1  ZINC000066361645    0.0900
     31 H31        -8.4714    2.6321   56.2153 H       1  ZINC000066361645    0.1100
     32 H32       -12.1806    0.2849   55.7682 H       1  ZINC000066361645    0.1400
     33 H33       -10.3690   -1.5989   51.5803 H       1  ZINC000066361645    0.1600
     34 H34        -9.5999    1.6199   51.8105 H       1  ZINC000066361645    0.4100
     35 H35        -6.2908    0.3579   50.9735 H       1  ZINC000066361645    0.1000
     36 H36        -7.5621    1.4495   50.3730 H       1  ZINC000066361645    0.1200
     37 H37        -6.6698    3.6257   50.5535 H       1  ZINC000066361645    0.0600
     38 H38        -8.1036    3.5403   51.6047 H       1  ZINC000066361645    0.0700
     39 H39        -6.6123    4.3126   52.1946 H       1  ZINC000066361645    0.0700
     40 H40        -4.5676    2.0652   52.9233 H       1  ZINC000066361645    0.4000
     41 H41        -2.5496    1.5436   51.7469 H       1  ZINC000066361645    0.1000
     42 H42        -2.8517    0.3820   49.5770 H       1  ZINC000066361645    0.0600
     43 H43        -2.8201    1.9492   48.7336 H       1  ZINC000066361645    0.0700
     44 H44        -0.5612    0.7958   50.4319 H       1  ZINC000066361645    0.0600
     45 H45        -0.5987    0.8502   48.6532 H       1  ZINC000066361645    0.0700
     46 H46         0.7198    2.7377   49.5737 H       1  ZINC000066361645    0.0600
     47 H47        -0.7344    3.3249   48.7317 H       1  ZINC000066361645    0.0600
     48 H48        -0.4640    2.9192   51.7449 H       1  ZINC000066361645    0.0600
     49 H49        -0.4324    4.4864   50.9016 H       1  ZINC000066361645    0.0700
     50 H50        -2.7230    4.0726   50.0467 H       1  ZINC000066361645    0.0700
     51 H51        -2.6854    4.0182   51.8254 H       1  ZINC000066361645    0.0700
     52 H52       -13.3157   -4.7567   53.1680 H       1  ZINC000066361645    0.1300
     53 H53       -12.0890   -4.3631   54.4006 H       1  ZINC000066361645    0.0800
     54 H54       -14.5625   -2.6825   53.7514 H       1  ZINC000066361645    0.0800
     55 H55       -14.3635   -3.7237   55.1851 H       1  ZINC000066361645    0.1200
@<TRIPOS>BOND
     1     1     2    1
     2     1    29    1
     3     1    30    1
     4     1    31    1
     5     2     3    1
     6     3     8   ar
     7     3     4   ar
     8     4     5   ar
     9     4    32    1
    10     5    28    1
    11     5     6   ar
    12     6     7   ar
    13     6    25    1
    14     7     8   ar
    15     7    33    1
    16     8     9    1
    17     9    10   am
    18     9    34    1
    19    10    11    2
    20    10    12    1
    21    12    13    1
    22    12    35    1
    23    12    36    1
    24    13    14    1
    25    13    15    1
    26    13    16    1
    27    15    37    1
    28    15    38    1
    29    15    39    1
    30    16    17   am
    31    16    40    1
    32    17    18    2
    33    17    19    1
    34    19    24    1
    35    19    20    1
    36    19    41    1
    37    20    21    1
    38    20    42    1
    39    20    43    1
    40    21    22    1
    41    21    44    1
    42    21    45    1
    43    22    23    1
    44    22    46    1
    45    22    47    1
    46    23    24    1
    47    23    48    1
    48    23    49    1
    49    24    50    1
    50    24    51    1
    51    25    26    1
    52    26    27    1
    53    26    52    1
    54    26    53    1
    55    27    28    1
    56    27    54    1
    57    27    55    1
@<TRIPOS>SUBSTRUCTURE
     1 ZINC000066361645        1 TEMP              0 ****  ****    0 ROOT


##########                                Name:    ZINC001078110631
##########                DOCK_Rotatable_Bonds:                   7
##########                         Heavy_Atoms:                  25
##########                    Molecular_Weight:             353.369
##########                DOCK_Rotatable_Bonds:                   7
##########                       Formal_Charge:           0.0100006
##########                     HBond_Acceptors:                   8
##########                        HBond_Donors:                   2
##########                         Heavy_Atoms:                  25
##########                          Grid_Score:          -35.038380
##########                     Grid_vdw_energy:          -32.886833
##########                      Grid_es_energy:           -2.151548
##########           Internal_energy_repulsive:            6.396202

@<TRIPOS>MOLECULE
ZINC001078110631
 46 48 1 0 0
SMALL
USER_CHARGES


@<TRIPOS>ATOM
      1 O1         -4.9262    2.2830   49.1049 O.2     1  ZINC001078110631   -0.5100
      2 C2         -4.7866    1.9882   50.2762 C.2     1  ZINC001078110631    0.5600
      3 N3         -3.6070    2.2070   50.8903 N.am    1  ZINC001078110631   -0.7200
      4 C4         -2.4910    2.7945   50.1448 C.3     1  ZINC001078110631    0.1500
      5 H5         -2.8654    3.4420   49.3520 H       1  ZINC001078110631    0.1200
      6 C6         -1.5978    1.6834   49.5527 C.3     1  ZINC001078110631    0.0300
      7 N7         -0.2141    2.2105   49.6749 N.3     1  ZINC001078110631   -0.5000
      8 C8          0.7703    1.1212   49.6271 C.3     1  ZINC001078110631    0.0300
      9 C9          2.1819    1.7106   49.5957 C.3     1  ZINC001078110631    0.1300
     10 N10         2.4040    2.3779   48.3106 N.am    1  ZINC001078110631   -0.6200
     11 C11         2.6756    1.6773   47.0498 C.3     1  ZINC001078110631    0.1000
     12 C12         2.4059    2.7135   45.9362 C.3     1  ZINC001078110631   -0.1300
     13 C13         2.6427    4.0470   46.6823 C.3     1  ZINC001078110631   -0.1600
     14 C14         2.3797    3.7102   48.1335 C.2     1  ZINC001078110631    0.5200
     15 O15         2.1829    4.5240   49.0110 O.2     1  ZINC001078110631   -0.5200
     16 C16        -0.1966    2.8863   50.9978 C.3     1  ZINC001078110631    0.0000
     17 C17        -1.5708    3.5881   51.0951 C.3     1  ZINC001078110631    0.1000
     18 H18        -1.9492    3.5397   52.1162 H       1  ZINC001078110631    0.0700
     19 O19        -1.4646    4.9483   50.6699 O.3     1  ZINC001078110631   -0.5500
     20 C20        -5.9108    1.3963   51.0271 C.ar    1  ZINC001078110631   -0.1900
     21 C21        -6.6506    2.1800   51.9157 C.ar    1  ZINC001078110631   -0.0300
     22 C22        -7.6992    1.6225   52.6143 C.ar    1  ZINC001078110631   -0.1700
     23 C23        -8.0223    0.2851   52.4377 C.ar    1  ZINC001078110631    0.1600
     24 F24        -9.0517   -0.2548   53.1262 F       1  ZINC001078110631   -0.1200
     25 C25        -7.2940   -0.4994   51.5582 C.ar    1  ZINC001078110631   -0.2000
     26 C26        -6.2436    0.0489   50.8477 C.ar    1  ZINC001078110631    0.2000
     27 F27        -5.5334   -0.7160   49.9899 F       1  ZINC001078110631   -0.1000
     28 H28        -3.4970    1.9755   51.8258 H       1  ZINC001078110631    0.4000
     29 H29        -1.7058    0.7628   50.1261 H       1  ZINC001078110631    0.0500
     30 H30        -1.8481    1.5119   48.5058 H       1  ZINC001078110631    0.1000
     31 H31         0.6589    0.4918   50.5099 H       1  ZINC001078110631    0.0400
     32 H32         0.6066    0.5226   48.7310 H       1  ZINC001078110631    0.0800
     33 H33         2.2920    2.4334   50.4042 H       1  ZINC001078110631    0.0900
     34 H34         2.9122    0.9113   49.7211 H       1  ZINC001078110631    0.0800
     35 H35         3.7146    1.3497   47.0166 H       1  ZINC001078110631    0.0700
     36 H36         2.0065    0.8238   46.9409 H       1  ZINC001078110631    0.0800
     37 H37         3.1121    2.5956   45.1144 H       1  ZINC001078110631    0.0900
     38 H38         1.3785    2.6436   45.5789 H       1  ZINC001078110631    0.0800
     39 H39         3.6703    4.3837   46.5450 H       1  ZINC001078110631    0.1100
     40 H40         1.9418    4.8071   46.3370 H       1  ZINC001078110631    0.1000
     41 H41        -0.0854    2.1539   51.7973 H       1  ZINC001078110631    0.0600
     42 H42         0.6080    3.6205   51.0390 H       1  ZINC001078110631    0.0900
     43 H43        -1.3395    5.0538   49.7168 H       1  ZINC001078110631    0.3800
     44 H44        -6.4010    3.2215   52.0551 H       1  ZINC001078110631    0.1500
     45 H45        -8.2710    2.2284   53.3014 H       1  ZINC001078110631    0.1500
     46 H46        -7.5501   -1.5401   51.4249 H       1  ZINC001078110631    0.1600
@<TRIPOS>BOND
     1     1     2    2
     2     2     3   am
     3     2    20    1
     4     3     4    1
     5     3    28    1
     6     4     5    1
     7     4    17    1
     8     4     6    1
     9     6     7    1
    10     6    29    1
    11     6    30    1
    12     7     8    1
    13     7    16    1
    14     8     9    1
    15     8    31    1
    16     8    32    1
    17     9    10    1
    18     9    33    1
    19     9    34    1
    20    10    14   am
    21    10    11    1
    22    11    12    1
    23    11    35    1
    24    11    36    1
    25    12    13    1
    26    12    37    1
    27    12    38    1
    28    13    14    1
    29    13    39    1
    30    13    40    1
    31    14    15    2
    32    16    17    1
    33    16    41    1
    34    16    42    1
    35    17    18    1
    36    17    19    1
    37    19    43    1
    38    20    26   ar
    39    20    21   ar
    40    21    22   ar
    41    21    44    1
    42    22    23   ar
    43    22    45    1
    44    23    24    1
    45    23    25   ar
    46    25    26   ar
    47    25    46    1
    48    26    27    1
@<TRIPOS>SUBSTRUCTURE
     1 ZINC001078110631        1 TEMP              0 ****  ****    0 ROOT


##########                                Name:    ZINC001456607258
##########                DOCK_Rotatable_Bonds:                   9
##########                         Heavy_Atoms:                  25
##########                    Molecular_Weight:             339.437
##########                DOCK_Rotatable_Bonds:                   9
##########                       Formal_Charge:          -0.0200009
##########                     HBond_Acceptors:                   5
##########                        HBond_Donors:                   2
##########                         Heavy_Atoms:                  25
##########                          Grid_Score:          -35.030701
##########                     Grid_vdw_energy:          -33.382729
##########                      Grid_es_energy:           -1.647971
##########           Internal_energy_repulsive:           20.392960

@<TRIPOS>MOLECULE
ZINC001456607258
 50 52 1 0 0
SMALL
USER_CHARGES


@<TRIPOS>ATOM
      1 C1        -12.8128   -2.2388   52.8988 C.3     1  ZINC001456607258   -0.1600
      2 C2        -12.4233   -0.9172   53.5642 C.3     1  ZINC001456607258   -0.1100
      3 C3        -11.3654   -1.1792   54.6381 C.3     1  ZINC001456607258   -0.1000
      4 H4        -10.8635   -2.1242   54.4307 H       1  ZINC001456607258    0.0900
      5 C5        -12.0383   -1.2496   56.0104 C.3     1  ZINC001456607258   -0.0700
      6 C6        -11.1758   -2.0495   56.9523 C.ar    1  ZINC001456607258   -0.0800
      7 C7        -10.4940   -1.4144   57.9733 C.ar    1  ZINC001456607258   -0.1200
      8 C8         -9.7028   -2.1482   58.8373 C.ar    1  ZINC001456607258   -0.1200
      9 C9         -9.5936   -3.5173   58.6803 C.ar    1  ZINC001456607258   -0.1200
     10 C10       -10.2761   -4.1526   57.6599 C.ar    1  ZINC001456607258   -0.1200
     11 C11       -11.0708   -3.4194   56.7986 C.ar    1  ZINC001456607258   -0.1200
     12 C12       -10.3548   -0.0613   54.6309 C.2     1  ZINC001456607258    0.5200
     13 O13       -10.3464    0.7543   55.5284 O.2     1  ZINC001456607258   -0.5300
     14 N14        -9.4602    0.0319   53.6271 N.am    1  ZINC001456607258   -0.7300
     15 C15        -8.4777    1.1186   53.6201 C.3     1  ZINC001456607258    0.1300
     16 C16        -7.8154    1.1984   52.2433 C.3     1  ZINC001456607258   -0.1400
     17 C17        -6.4611    1.9303   52.2485 C.3     1  ZINC001456607258    0.1100
     18 N18        -5.9938    0.8619   51.3439 N.am    1  ZINC001456607258   -0.6500
     19 C19        -5.0215    0.7688   50.4151 C.2     1  ZINC001456607258    0.6100
     20 O20        -4.8628   -0.2701   49.8030 O.2     1  ZINC001456607258   -0.5400
     21 C21        -4.1515    1.9251   50.1415 C.2     1  ZINC001456607258   -0.2300
     22 C22        -3.1314    1.9894   49.2327 C.2     1  ZINC001456607258    0.0400
     23 N23        -2.5867    3.2194   49.2917 N.pl3   1  ZINC001456607258   -0.5500
     24 C24        -3.2289    3.9772   50.2273 C.2     1  ZINC001456607258   -0.0200
     25 C25        -4.2081    3.2425   50.7840 C.2     1  ZINC001456607258   -0.1400
     26 C26        -7.0188   -0.0633   51.8646 C.3     1  ZINC001456607258    0.1100
     27 H27       -13.6304   -2.0660   52.1989 H       1  ZINC001456607258    0.0600
     28 H28       -11.9541   -2.6422   52.3619 H       1  ZINC001456607258    0.0600
     29 H29       -13.1313   -2.9495   53.6613 H       1  ZINC001456607258    0.0600
     30 H30       -12.0188   -0.2379   52.8138 H       1  ZINC001456607258    0.0800
     31 H31       -13.3040   -0.4683   54.0236 H       1  ZINC001456607258    0.0700
     32 H32       -12.1675   -0.2413   56.4038 H       1  ZINC001456607258    0.0800
     33 H33       -13.0122   -1.7294   55.9134 H       1  ZINC001456607258    0.0900
     34 H34       -10.5792   -0.3447   58.0959 H       1  ZINC001456607258    0.1200
     35 H35        -9.1695   -1.6518   59.6345 H       1  ZINC001456607258    0.1200
     36 H36        -8.9749   -4.0904   59.3548 H       1  ZINC001456607258    0.1200
     37 H37       -10.1906   -5.2222   57.5371 H       1  ZINC001456607258    0.1200
     38 H38       -11.6041   -3.9157   56.0013 H       1  ZINC001456607258    0.1200
     39 H39        -9.4669   -0.6205   52.9094 H       1  ZINC001456607258    0.4000
     40 H40        -8.9781    2.0622   53.8378 H       1  ZINC001456607258    0.0700
     41 H41        -7.7183    0.9268   54.3781 H       1  ZINC001456607258    0.0800
     42 H42        -8.4967    1.5378   51.4630 H       1  ZINC001456607258    0.1100
     43 H43        -6.4927    2.9162   51.7845 H       1  ZINC001456607258    0.0800
     44 H44        -5.9660    1.9316   53.2195 H       1  ZINC001456607258    0.0900
     45 H45        -2.8162    1.1895   48.5792 H       1  ZINC001456607258    0.1700
     46 H46        -1.8436    3.5233   48.7472 H       1  ZINC001456607258    0.4200
     47 H47        -2.9928    5.0012   50.4762 H       1  ZINC001456607258    0.1700
     48 H48        -4.8946    3.5574   51.5560 H       1  ZINC001456607258    0.1500
     49 H49        -6.6875   -0.6478   52.7230 H       1  ZINC001456607258    0.0900
     50 H50        -7.4957   -0.6693   51.0943 H       1  ZINC001456607258    0.0900
@<TRIPOS>BOND
     1     1     2    1
     2     1    27    1
     3     1    28    1
     4     1    29    1
     5     2     3    1
     6     2    30    1
     7     2    31    1
     8     3     4    1
     9     3     5    1
    10     3    12    1
    11     5     6    1
    12     5    32    1
    13     5    33    1
    14     6    11   ar
    15     6     7   ar
    16     7     8   ar
    17     7    34    1
    18     8     9   ar
    19     8    35    1
    20     9    10   ar
    21     9    36    1
    22    10    11   ar
    23    10    37    1
    24    11    38    1
    25    12    13    2
    26    12    14   am
    27    14    15    1
    28    14    39    1
    29    15    16    1
    30    15    40    1
    31    15    41    1
    32    16    26    1
    33    16    17    1
    34    16    42    1
    35    17    18    1
    36    17    43    1
    37    17    44    1
    38    18    19   am
    39    18    26    1
    40    19    20    2
    41    19    21    1
    42    21    25    1
    43    21    22    2
    44    22    23    1
    45    22    45    1
    46    23    24    1
    47    23    46    1
    48    24    25    2
    49    24    47    1
    50    25    48    1
    51    26    49    1
    52    26    50    1
@<TRIPOS>SUBSTRUCTURE
     1 ZINC001456607258        1 TEMP              0 ****  ****    0 ROOT


##########                                Name:    ZINC000523863446
##########                DOCK_Rotatable_Bonds:                  10
##########                         Heavy_Atoms:                  29
##########                    Molecular_Weight:             396.533
##########                DOCK_Rotatable_Bonds:                  10
##########                       Formal_Charge:          -0.0200008
##########                     HBond_Acceptors:                   6
##########                        HBond_Donors:                   1
##########                         Heavy_Atoms:                  29
##########                          Grid_Score:          -35.017551
##########                     Grid_vdw_energy:          -30.733637
##########                      Grid_es_energy:           -4.283916
##########           Internal_energy_repulsive:           20.774399

@<TRIPOS>MOLECULE
ZINC000523863446
 61 63 1 0 0
SMALL
USER_CHARGES


@<TRIPOS>ATOM
      1 C1         -6.3704    3.0564   52.2786 C.3     1  ZINC000523863446   -0.1700
      2 C2         -7.2247    2.0304   53.0259 C.3     1  ZINC000523863446    0.1500
      3 H3         -6.8289    1.8918   54.0320 H       1  ZINC000523863446    0.1300
      4 C4         -8.6458    2.5251   53.1089 C.2     1  ZINC000523863446    0.5100
      5 O5         -9.1318    3.1323   52.1783 O.2     1  ZINC000523863446   -0.5100
      6 N6         -9.3765    2.2928   54.2172 N.am    1  ZINC000523863446   -0.6000
      7 C7        -10.7585    2.7721   54.2973 C.3     1  ZINC000523863446    0.0700
      8 C8         -8.7887    1.5609   55.3421 C.3     1  ZINC000523863446    0.1000
      9 C9         -9.8622    0.7670   56.0408 C.2     1  ZINC000523863446    0.5000
     10 O10       -10.5907    0.0381   55.4013 O.2     1  ZINC000523863446   -0.5200
     11 N11       -10.0129    0.8672   57.3763 N.am    1  ZINC000523863446   -0.7200
     12 C12       -11.0555    0.0942   58.0559 C.3     1  ZINC000523863446    0.1900
     13 H13       -11.9438    0.0497   57.4258 H       1  ZINC000523863446    0.1000
     14 C14       -11.4057    0.7676   59.3843 C.3     1  ZINC000523863446   -0.1200
     15 C15       -12.5178    1.7938   59.1583 C.3     1  ZINC000523863446   -0.0900
     16 C16       -13.8222    1.2742   59.7662 C.3     1  ZINC000523863446   -0.1200
     17 C17       -14.9344    2.3004   59.5402 C.3     1  ZINC000523863446   -0.1200
     18 C18       -14.5517    3.6227   60.2079 C.3     1  ZINC000523863446   -0.1200
     19 C19       -13.2473    4.1422   59.6000 C.3     1  ZINC000523863446   -0.1200
     20 C20       -12.1351    3.1162   59.8260 C.3     1  ZINC000523863446   -0.1100
     21 C21       -10.5547   -1.3029   58.3177 C.ar    1  ZINC000523863446   -0.0900
     22 C22        -9.5754   -1.5193   59.2690 C.ar    1  ZINC000523863446   -0.1100
     23 C23        -9.1161   -2.8008   59.5091 C.ar    1  ZINC000523863446   -0.1200
     24 C24        -9.6365   -3.8660   58.7981 C.ar    1  ZINC000523863446   -0.1200
     25 C25       -10.6165   -3.6498   57.8475 C.ar    1  ZINC000523863446   -0.1200
     26 C26       -11.0788   -2.3688   57.6105 C.ar    1  ZINC000523863446   -0.1000
     27 N27        -7.1932    0.7534   52.3086 N.pl3   1  ZINC000523863446   -0.3600
     28 C28        -8.0413   -0.2804   52.4905 C.2     1  ZINC000523863446    0.0600
     29 C29        -7.6769   -1.2674   51.6394 C.2     1  ZINC000523863446   -0.2700
     30 C30        -6.5682   -0.8215   50.9127 C.2     1  ZINC000523863446    0.0500
     31 N31        -6.2811    0.3921   51.3087 N.2     1  ZINC000523863446   -0.2900
     32 H32        -6.7661    3.1950   51.2725 H       1  ZINC000523863446    0.0700
     33 H33        -6.3938    4.0064   52.8123 H       1  ZINC000523863446    0.1000
     34 H34        -5.3425    2.6986   52.2187 H       1  ZINC000523863446    0.0800
     35 H35       -11.4318    2.0055   53.9137 H       1  ZINC000523863446    0.0700
     36 H36       -11.0085    2.9884   55.3360 H       1  ZINC000523863446    0.0800
     37 H37       -10.8636    3.6789   53.7019 H       1  ZINC000523863446    0.0800
     38 H38        -8.0187    0.8837   54.9722 H       1  ZINC000523863446    0.1100
     39 H39        -8.3448    2.2676   56.0432 H       1  ZINC000523863446    0.1100
     40 H40        -9.4311    1.4512   57.8876 H       1  ZINC000523863446    0.4000
     41 H41       -11.7453    0.0144   60.0952 H       1  ZINC000523863446    0.0800
     42 H42       -10.5232    1.2698   59.7808 H       1  ZINC000523863446    0.0700
     43 H43       -12.6536    1.9528   58.0886 H       1  ZINC000523863446    0.0700
     44 H44       -14.0949    0.3323   59.2906 H       1  ZINC000523863446    0.0600
     45 H45       -13.6865    1.1152   60.8360 H       1  ZINC000523863446    0.0600
     46 H46       -15.0702    2.4594   58.4705 H       1  ZINC000523863446    0.0600
     47 H47       -15.8637    1.9303   59.9733 H       1  ZINC000523863446    0.0600
     48 H48       -15.3440    4.3537   60.0469 H       1  ZINC000523863446    0.0600
     49 H49       -14.4160    3.4637   61.2777 H       1  ZINC000523863446    0.0600
     50 H50       -13.3830    4.3012   58.5302 H       1  ZINC000523863446    0.0600
     51 H51       -12.9747    5.0843   60.0757 H       1  ZINC000523863446    0.0600
     52 H52       -11.9994    2.9571   60.8957 H       1  ZINC000523863446    0.0600
     53 H53       -11.2059    3.4862   59.3929 H       1  ZINC000523863446    0.0600
     54 H54        -9.1689   -0.6871   59.8244 H       1  ZINC000523863446    0.1200
     55 H55        -8.3505   -2.9697   60.2518 H       1  ZINC000523863446    0.1200
     56 H56        -9.2771   -4.8672   58.9853 H       1  ZINC000523863446    0.1200
     57 H57       -11.0228   -4.4820   57.2919 H       1  ZINC000523863446    0.1200
     58 H58       -11.8445   -2.1998   56.8677 H       1  ZINC000523863446    0.1200
     59 H59        -8.8633   -0.3142   53.1901 H       1  ZINC000523863446    0.1700
     60 H60        -8.1570   -2.2296   51.5395 H       1  ZINC000523863446    0.1500
     61 H61        -6.0430   -1.3804   50.1523 H       1  ZINC000523863446    0.1800
@<TRIPOS>BOND
     1     1     2    1
     2     1    32    1
     3     1    33    1
     4     1    34    1
     5     2     3    1
     6     2     4    1
     7     2    27    1
     8     4     5    2
     9     4     6   am
    10     6     7    1
    11     6     8    1
    12     7    35    1
    13     7    36    1
    14     7    37    1
    15     8     9    1
    16     8    38    1
    17     8    39    1
    18     9    10    2
    19     9    11   am
    20    11    12    1
    21    11    40    1
    22    12    13    1
    23    12    14    1
    24    12    21    1
    25    14    15    1
    26    14    41    1
    27    14    42    1
    28    15    20    1
    29    15    16    1
    30    15    43    1
    31    16    17    1
    32    16    44    1
    33    16    45    1
    34    17    18    1
    35    17    46    1
    36    17    47    1
    37    18    19    1
    38    18    48    1
    39    18    49    1
    40    19    20    1
    41    19    50    1
    42    19    51    1
    43    20    52    1
    44    20    53    1
    45    21    26   ar
    46    21    22   ar
    47    22    23   ar
    48    22    54    1
    49    23    24   ar
    50    23    55    1
    51    24    25   ar
    52    24    56    1
    53    25    26   ar
    54    25    57    1
    55    26    58    1
    56    27    31    1
    57    27    28    1
    58    28    29    2
    59    28    59    1
    60    29    30    1
    61    29    60    1
    62    30    31    2
    63    30    61    1
@<TRIPOS>SUBSTRUCTURE
     1 ZINC000523863446        1 TEMP              0 ****  ****    0 ROOT


##########                                Name:    ZINC000745364361
##########                DOCK_Rotatable_Bonds:                   8
##########                         Heavy_Atoms:                  29
##########                    Molecular_Weight:             398.434
##########                DOCK_Rotatable_Bonds:                   8
##########                       Formal_Charge:          0.00999923
##########                     HBond_Acceptors:                   7
##########                        HBond_Donors:                   1
##########                         Heavy_Atoms:                  29
##########                          Grid_Score:          -35.012299
##########                     Grid_vdw_energy:          -33.888084
##########                      Grid_es_energy:           -1.124214
##########           Internal_energy_repulsive:           15.910969

@<TRIPOS>MOLECULE
ZINC000745364361
 52 54 1 0 0
SMALL
USER_CHARGES


@<TRIPOS>ATOM
      1 C1         -3.6475    1.2318   49.9563 C.3     1  ZINC000745364361   -0.1700
      2 C2         -4.7020    2.2795   50.3187 C.3     1  ZINC000745364361    0.0700
      3 H3         -4.8370    2.9639   49.4813 H       1  ZINC000745364361    0.1100
      4 O4         -4.2639    3.0236   51.4861 O.3     1  ZINC000745364361   -0.3200
      5 C5         -3.2802    3.9186   51.3044 C.2     1  ZINC000745364361    0.4700
      6 O6         -2.9704    4.2572   50.1867 O.2     1  ZINC000745364361   -0.4900
      7 C7         -2.5624    4.5012   52.4945 C.3     1  ZINC000745364361   -0.0400
      8 H8         -1.7023    3.8786   52.7407 H       1  ZINC000745364361    0.1200
      9 C9         -2.0881    5.9172   52.1609 C.3     1  ZINC000745364361   -0.1400
     10 C10        -3.5009    4.5503   53.6726 C.ar    1  ZINC000745364361   -0.0500
     11 C11        -3.5759    3.4779   54.5413 C.ar    1  ZINC000745364361   -0.1000
     12 C12        -4.4365    3.5216   55.6226 C.ar    1  ZINC000745364361   -0.0900
     13 C13        -5.2226    4.6377   55.8360 C.ar    1  ZINC000745364361   -0.1500
     14 C14        -5.1480    5.7129   54.9665 C.ar    1  ZINC000745364361    0.1000
     15 F15        -5.9163    6.8047   55.1740 F       1  ZINC000745364361   -0.1400
     16 C16        -4.2822    5.6702   53.8872 C.ar    1  ZINC000745364361   -0.1400
     17 C17        -6.0088    1.5929   50.6220 C.2     1  ZINC000745364361    0.5200
     18 O18        -6.7860    1.3444   49.7245 O.2     1  ZINC000745364361   -0.5000
     19 N19        -6.3139    1.2548   51.8905 N.am    1  ZINC000745364361   -0.6700
     20 C20        -7.5285    0.6166   52.1724 C.ar    1  ZINC000745364361    0.1200
     21 C21        -8.6090    1.3545   52.6377 C.ar    1  ZINC000745364361   -0.1100
     22 C22        -9.8060    0.7256   52.9156 C.ar    1  ZINC000745364361   -0.1400
     23 C23        -9.9298   -0.6450   52.7294 C.ar    1  ZINC000745364361    0.1500
     24 N24       -11.1443   -1.2833   53.0117 N.am    1  ZINC000745364361   -0.5600
     25 C25       -12.0062   -1.9076   52.0011 C.3     1  ZINC000745364361    0.0900
     26 C26       -12.9610   -2.8322   52.7881 C.3     1  ZINC000745364361   -0.1300
     27 C27       -12.9807   -2.1555   54.1783 C.3     1  ZINC000745364361   -0.1500
     28 C28       -11.6672   -1.4078   54.2437 C.2     1  ZINC000745364361    0.5200
     29 O29       -11.1629   -0.9769   55.2592 O.2     1  ZINC000745364361   -0.5100
     30 C30        -8.8498   -1.3827   52.2627 C.ar    1  ZINC000745364361   -0.1400
     31 C31        -7.6539   -0.7531   51.9812 C.ar    1  ZINC000745364361   -0.0900
     32 H32        -2.7023    1.7284   49.7370 H       1  ZINC000745364361    0.0800
     33 H33        -3.5125    0.5474   50.7939 H       1  ZINC000745364361    0.0800
     34 H34        -3.9764    0.6734   49.0800 H       1  ZINC000745364361    0.0800
     35 H35        -2.9482    6.5398   51.9147 H       1  ZINC000745364361    0.0700
     36 H36        -1.5689    6.3386   53.0217 H       1  ZINC000745364361    0.0800
     37 H37        -1.4093    5.8817   51.3089 H       1  ZINC000745364361    0.0800
     38 H38        -2.9621    2.6050   54.3751 H       1  ZINC000745364361    0.1300
     39 H39        -4.4945    2.6828   56.3006 H       1  ZINC000745364361    0.1400
     40 H40        -5.8953    4.6713   56.6802 H       1  ZINC000745364361    0.1400
     41 H41        -4.2228    6.5083   53.2086 H       1  ZINC000745364361    0.1400
     42 H42        -5.6924    1.4535   52.6082 H       1  ZINC000745364361    0.4100
     43 H43        -8.5127    2.4205   52.7826 H       1  ZINC000745364361    0.1300
     44 H44       -10.6461    1.2993   53.2781 H       1  ZINC000745364361    0.1600
     45 H45       -12.5741   -1.1457   51.4670 H       1  ZINC000745364361    0.0800
     46 H46       -11.4067   -2.4911   51.3025 H       1  ZINC000745364361    0.0900
     47 H47       -13.9556   -2.8364   52.3422 H       1  ZINC000745364361    0.1000
     48 H48       -12.5597   -3.8437   52.8523 H       1  ZINC000745364361    0.0900
     49 H49       -13.8211   -1.4656   54.2549 H       1  ZINC000745364361    0.1100
     50 H50       -13.0289   -2.9060   54.9673 H       1  ZINC000745364361    0.1100
     51 H51        -8.9461   -2.4485   52.1176 H       1  ZINC000745364361    0.1300
     52 H52        -6.8139   -1.3269   51.6184 H       1  ZINC000745364361    0.1400
@<TRIPOS>BOND
     1     1     2    1
     2     1    32    1
     3     1    33    1
     4     1    34    1
     5     2     3    1
     6     2     4    1
     7     2    17    1
     8     4     5    1
     9     5     6    2
    10     5     7    1
    11     7     8    1
    12     7     9    1
    13     7    10    1
    14     9    35    1
    15     9    36    1
    16     9    37    1
    17    10    16   ar
    18    10    11   ar
    19    11    12   ar
    20    11    38    1
    21    12    13   ar
    22    12    39    1
    23    13    14   ar
    24    13    40    1
    25    14    15    1
    26    14    16   ar
    27    16    41    1
    28    17    18    2
    29    17    19   am
    30    19    20    1
    31    19    42    1
    32    20    31   ar
    33    20    21   ar
    34    21    22   ar
    35    21    43    1
    36    22    23   ar
    37    22    44    1
    38    23    24    1
    39    23    30   ar
    40    24    28   am
    41    24    25    1
    42    25    26    1
    43    25    45    1
    44    25    46    1
    45    26    27    1
    46    26    47    1
    47    26    48    1
    48    27    28    1
    49    27    49    1
    50    27    50    1
    51    28    29    2
    52    30    31   ar
    53    30    51    1
    54    31    52    1
@<TRIPOS>SUBSTRUCTURE
     1 ZINC000745364361        1 TEMP              0 ****  ****    0 ROOT


##########                                Name:    ZINC000750807956
##########                DOCK_Rotatable_Bonds:                  11
##########                         Heavy_Atoms:                  26
##########                    Molecular_Weight:             368.473
##########                DOCK_Rotatable_Bonds:                  11
##########                       Formal_Charge:        -8.12113e-07
##########                     HBond_Acceptors:                   7
##########                        HBond_Donors:                   1
##########                         Heavy_Atoms:                  26
##########                          Grid_Score:          -34.988708
##########                     Grid_vdw_energy:          -31.575676
##########                      Grid_es_energy:           -3.413034
##########           Internal_energy_repulsive:           74.873413

@<TRIPOS>MOLECULE
ZINC000750807956
 58 59 1 0 0
SMALL
USER_CHARGES


@<TRIPOS>ATOM
      1 C1        -11.8464   -3.5263   53.2118 C.3     1  ZINC000750807956   -0.1500
      2 C2        -11.6371   -2.6009   52.0115 C.3     1  ZINC000750807956    0.0700
      3 O3        -10.8339   -1.4602   52.4139 O.3     1  ZINC000750807956   -0.3600
      4 C4        -11.3842   -0.6066   53.2916 C.2     1  ZINC000750807956    0.4800
      5 O5        -12.1967    0.2052   52.9164 O.2     1  ZINC000750807956   -0.4900
      6 C6        -10.9887   -0.6607   54.7447 C.3     1  ZINC000750807956    0.1600
      7 H7        -10.6471   -1.6656   54.9933 H       1  ZINC000750807956    0.1000
      8 C8        -12.1932   -0.2970   55.6186 C.3     1  ZINC000750807956   -0.1300
      9 C9        -11.7514   -0.2178   57.0818 C.3     1  ZINC000750807956   -0.1200
     10 C10       -10.6930    0.8764   57.2383 C.3     1  ZINC000750807956   -0.1400
     11 C11        -9.4715    0.5259   56.3827 C.3     1  ZINC000750807956    0.1100
     12 N12        -9.9090    0.3031   54.9975 N.am    1  ZINC000750807956   -0.6100
     13 C13        -9.3343    0.9738   53.9797 C.2     1  ZINC000750807956    0.5100
     14 O14        -9.7043    0.7810   52.8408 O.2     1  ZINC000750807956   -0.5000
     15 C15        -8.2320    1.9634   54.2564 C.3     1  ZINC000750807956   -0.1400
     16 C16        -7.7491    2.5710   52.9378 C.3     1  ZINC000750807956    0.2100
     17 H17        -8.3420    2.1715   52.1151 H       1  ZINC000750807956    0.1000
     18 N18        -6.3385    2.2333   52.7321 N.am    1  ZINC000750807956   -0.7000
     19 C19        -5.9429    1.6674   51.5747 C.2     1  ZINC000750807956    0.6600
     20 O20        -6.7559    1.4385   50.7012 O.2     1  ZINC000750807956   -0.5600
     21 O21        -4.6467    1.3556   51.3863 O.3     1  ZINC000750807956   -0.3700
     22 C22        -3.7236    2.4604   51.1977 C.3     1  ZINC000750807956    0.1400
     23 C23        -3.3257    3.0309   52.5605 C.3     1  ZINC000750807956   -0.1800
     24 C24        -2.4740    1.9622   50.4689 C.3     1  ZINC000750807956   -0.1400
     25 C25        -4.3984    3.5523   50.3651 C.3     1  ZINC000750807956   -0.1800
     26 C26        -7.9073    4.0919   52.9889 C.3     1  ZINC000750807956   -0.1800
     27 C27        -8.0945    4.8278   51.6606 C.3     1  ZINC000750807956   -0.1700
     28 C28        -9.2744    4.6727   52.6222 C.3     1  ZINC000750807956   -0.1800
     29 H29       -12.3596   -2.9823   54.0048 H       1  ZINC000750807956    0.0600
     30 H30       -12.4493   -4.3826   52.9096 H       1  ZINC000750807956    0.0800
     31 H31       -10.8794   -3.8732   53.5761 H       1  ZINC000750807956    0.0700
     32 H32       -11.1239   -3.1449   51.2185 H       1  ZINC000750807956    0.0700
     33 H33       -12.6041   -2.2540   51.6472 H       1  ZINC000750807956    0.0600
     34 H34       -12.5912    0.6684   55.3061 H       1  ZINC000750807956    0.0800
     35 H35       -12.9638   -1.0605   55.5121 H       1  ZINC000750807956    0.0800
     36 H36       -12.6117    0.0167   57.7087 H       1  ZINC000750807956    0.0800
     37 H37       -11.3308   -1.1762   57.3864 H       1  ZINC000750807956    0.0700
     38 H38       -11.1050    1.8308   56.9105 H       1  ZINC000750807956    0.0700
     39 H39       -10.3958    0.9481   58.2845 H       1  ZINC000750807956    0.0800
     40 H40        -8.7565    1.3480   56.4125 H       1  ZINC000750807956    0.0900
     41 H41        -9.0046   -0.3812   56.7666 H       1  ZINC000750807956    0.0800
     42 H42        -8.6083    2.7546   54.9048 H       1  ZINC000750807956    0.1200
     43 H43        -7.4022    1.4549   54.7475 H       1  ZINC000750807956    0.1100
     44 H44        -5.6892    2.4171   53.4290 H       1  ZINC000750807956    0.4000
     45 H45        -2.8450    2.2531   53.1537 H       1  ZINC000750807956    0.0600
     46 H46        -2.6328    3.8603   52.4188 H       1  ZINC000750807956    0.0700
     47 H47        -4.2159    3.3859   53.0797 H       1  ZINC000750807956    0.0900
     48 H48        -2.7575    1.5558   49.4980 H       1  ZINC000750807956    0.0700
     49 H49        -1.7810    2.7915   50.3272 H       1  ZINC000750807956    0.0800
     50 H50        -1.9933    1.1843   51.0621 H       1  ZINC000750807956    0.0700
     51 H51        -5.2886    3.9073   50.8843 H       1  ZINC000750807956    0.0900
     52 H52        -3.7054    4.3817   50.2234 H       1  ZINC000750807956    0.0700
     53 H53        -4.6818    3.1459   49.3942 H       1  ZINC000750807956    0.0600
     54 H54        -7.3384    4.5978   53.7691 H       1  ZINC000750807956    0.1100
     55 H55        -7.6486    5.8179   51.5666 H       1  ZINC000750807956    0.0900
     56 H56        -8.1050    4.2282   50.7503 H       1  ZINC000750807956    0.0900
     57 H57       -10.0612    3.9712   52.3445 H       1  ZINC000750807956    0.1200
     58 H58        -9.6048    5.5608   53.1608 H       1  ZINC000750807956    0.0900
@<TRIPOS>BOND
     1     1     2    1
     2     1    29    1
     3     1    30    1
     4     1    31    1
     5     2     3    1
     6     2    32    1
     7     2    33    1
     8     3     4    1
     9     4     5    2
    10     4     6    1
    11     6     7    1
    12     6    12    1
    13     6     8    1
    14     8     9    1
    15     8    34    1
    16     8    35    1
    17     9    10    1
    18     9    36    1
    19     9    37    1
    20    10    11    1
    21    10    38    1
    22    10    39    1
    23    11    12    1
    24    11    40    1
    25    11    41    1
    26    12    13   am
    27    13    14    2
    28    13    15    1
    29    15    16    1
    30    15    42    1
    31    15    43    1
    32    16    17    1
    33    16    18    1
    34    16    26    1
    35    18    19   am
    36    18    44    1
    37    19    20    2
    38    19    21    1
    39    21    22    1
    40    22    23    1
    41    22    24    1
    42    22    25    1
    43    23    45    1
    44    23    46    1
    45    23    47    1
    46    24    48    1
    47    24    49    1
    48    24    50    1
    49    25    51    1
    50    25    52    1
    51    25    53    1
    52    26    28    1
    53    26    27    1
    54    26    54    1
    55    27    28    1
    56    27    55    1
    57    27    56    1
    58    28    57    1
    59    28    58    1
@<TRIPOS>SUBSTRUCTURE
     1 ZINC000750807956        1 TEMP              0 ****  ****    0 ROOT


##########                                Name:    ZINC000962855438
##########                DOCK_Rotatable_Bonds:                   7
##########                         Heavy_Atoms:                  27
##########                    Molecular_Weight:             370.448
##########                DOCK_Rotatable_Bonds:                   7
##########                       Formal_Charge:           0.0300005
##########                     HBond_Acceptors:                   6
##########                        HBond_Donors:                   2
##########                         Heavy_Atoms:                  27
##########                          Grid_Score:          -34.982586
##########                     Grid_vdw_energy:          -33.583481
##########                      Grid_es_energy:           -1.399106
##########           Internal_energy_repulsive:           10.329607

@<TRIPOS>MOLECULE
ZINC000962855438
 53 56 1 0 0
SMALL
USER_CHARGES


@<TRIPOS>ATOM
      1 C1         -6.9400   -0.1313   51.6399 C.3     1  ZINC000962855438   -0.1100
      2 C2         -6.7012    1.2904   52.0791 C.2     1  ZINC000962855438   -0.1700
      3 C3         -7.2998    1.7845   53.3286 C.2     1  ZINC000962855438    0.5600
      4 O4         -7.1286    2.9392   53.6698 O.2     1  ZINC000962855438   -0.5400
      5 N5         -8.0380    0.9577   54.0953 N.am    1  ZINC000962855438   -0.7100
      6 C6         -8.6328    1.4493   55.3407 C.3     1  ZINC000962855438    0.1500
      7 H7         -7.8757    1.9028   55.9803 H       1  ZINC000962855438    0.1200
      8 C8         -9.3811    0.3149   56.0842 C.3     1  ZINC000962855438    0.1000
      9 N9        -10.3896    1.0054   56.9086 N.am    1  ZINC000962855438   -0.6100
     10 C10       -10.9511    0.5194   58.0333 C.2     1  ZINC000962855438    0.5800
     11 O11       -11.7757    1.1797   58.6354 O.2     1  ZINC000962855438   -0.5200
     12 C12       -10.5652   -0.8137   58.5339 C.ar    1  ZINC000962855438   -0.1500
     13 C13        -9.6986   -0.9277   59.6209 C.ar    1  ZINC000962855438   -0.0600
     14 C14        -9.3356   -2.1718   60.0902 C.ar    1  ZINC000962855438   -0.1500
     15 C15        -9.8292   -3.3136   59.4790 C.ar    1  ZINC000962855438   -0.0500
     16 C16       -10.6830   -3.2126   58.4034 C.ar    1  ZINC000962855438   -0.1800
     17 C17       -11.0752   -1.9718   57.9193 C.ar    1  ZINC000962855438    0.1600
     18 O18       -11.9330   -2.0985   56.8734 O.3     1  ZINC000962855438   -0.2800
     19 C19       -11.8152   -3.4207   56.3209 C.3     1  ZINC000962855438    0.0700
     20 H20       -11.0645   -3.4437   55.5309 H       1  ZINC000962855438    0.0900
     21 C21       -13.1661   -3.9117   55.7967 C.3     1  ZINC000962855438   -0.1500
     22 C22       -11.3611   -4.2598   57.5408 C.3     1  ZINC000962855438   -0.1100
     23 C23       -10.6808    2.3121   56.3010 C.3     1  ZINC000962855438    0.0700
     24 C24        -9.7856    2.4464   55.0506 C.3     1  ZINC000962855438    0.0900
     25 H25        -9.4034    3.4629   54.9573 H       1  ZINC000962855438    0.0900
     26 O26       -10.5014    2.0674   53.8733 O.3     1  ZINC000962855438   -0.5600
     27 C27        -5.9491    2.0982   51.3371 C.2     1  ZINC000962855438   -0.0600
     28 C28        -5.1841    1.9922   50.0348 C.3     1  ZINC000962855438   -0.1000
     29 C29        -4.2721    3.1120   50.5601 C.3     1  ZINC000962855438   -0.1400
     30 C30        -5.4810    3.5359   51.4142 C.3     1  ZINC000962855438   -0.1100
     31 H31        -7.8322   -0.1735   51.0152 H       1  ZINC000962855438    0.0700
     32 H32        -6.0805   -0.4847   51.0702 H       1  ZINC000962855438    0.0700
     33 H33        -7.0799   -0.7638   52.5165 H       1  ZINC000962855438    0.0700
     34 H34        -8.1755    0.0370   53.8226 H       1  ZINC000962855438    0.4100
     35 H35        -9.8659   -0.3512   55.3706 H       1  ZINC000962855438    0.0800
     36 H36        -8.6913   -0.2432   56.7173 H       1  ZINC000962855438    0.0900
     37 H37        -9.3108   -0.0388   60.0960 H       1  ZINC000962855438    0.1400
     38 H38        -8.6663   -2.2568   60.9336 H       1  ZINC000962855438    0.1400
     39 H39        -9.5425   -4.2873   59.8479 H       1  ZINC000962855438    0.1300
     40 H40       -13.5092   -3.2505   55.0010 H       1  ZINC000962855438    0.0700
     41 H41       -13.0584   -4.9238   55.4069 H       1  ZINC000962855438    0.0800
     42 H42       -13.8931   -3.9107   56.6088 H       1  ZINC000962855438    0.0700
     43 H43       -10.6516   -5.0309   57.2409 H       1  ZINC000962855438    0.1000
     44 H44       -12.2178   -4.6983   58.0526 H       1  ZINC000962855438    0.1000
     45 H45       -11.7308    2.3611   56.0126 H       1  ZINC000962855438    0.0800
     46 H46       -10.4509    3.1092   57.0081 H       1  ZINC000962855438    0.0800
     47 H47       -10.9782    1.2301   53.9553 H       1  ZINC000962855438    0.3900
     48 H48        -4.6728    1.0382   49.9062 H       1  ZINC000962855438    0.0900
     49 H49        -5.7689    2.2803   49.1613 H       1  ZINC000962855438    0.1000
     50 H50        -3.4225    2.7521   51.1404 H       1  ZINC000962855438    0.0900
     51 H51        -3.9929    3.8442   49.8025 H       1  ZINC000962855438    0.0800
     52 H52        -6.1431    4.2415   50.9122 H       1  ZINC000962855438    0.1000
     53 H53        -5.2130    3.8508   52.4227 H       1  ZINC000962855438    0.0800
@<TRIPOS>BOND
     1     1     2    1
     2     1    31    1
     3     1    32    1
     4     1    33    1
     5     2     3    1
     6     2    27    2
     7     3     4    2
     8     3     5   am
     9     5     6    1
    10     5    34    1
    11     6     7    1
    12     6    24    1
    13     6     8    1
    14     8     9    1
    15     8    35    1
    16     8    36    1
    17     9    10   am
    18     9    23    1
    19    10    11    2
    20    10    12    1
    21    12    17   ar
    22    12    13   ar
    23    13    14   ar
    24    13    37    1
    25    14    15   ar
    26    14    38    1
    27    15    16   ar
    28    15    39    1
    29    16    22    1
    30    16    17   ar
    31    17    18    1
    32    18    19    1
    33    19    20    1
    34    19    21    1
    35    19    22    1
    36    21    40    1
    37    21    41    1
    38    21    42    1
    39    22    43    1
    40    22    44    1
    41    23    24    1
    42    23    45    1
    43    23    46    1
    44    24    25    1
    45    24    26    1
    46    26    47    1
    47    27    30    1
    48    27    28    1
    49    28    29    1
    50    28    48    1
    51    28    49    1
    52    29    30    1
    53    29    50    1
    54    29    51    1
    55    30    52    1
    56    30    53    1
@<TRIPOS>SUBSTRUCTURE
     1 ZINC000962855438        1 TEMP              0 ****  ****    0 ROOT


##########                                Name:    ZINC000912668252
##########                DOCK_Rotatable_Bonds:                  10
##########                         Heavy_Atoms:                  30
##########                    Molecular_Weight:             411.433
##########                DOCK_Rotatable_Bonds:                  10
##########                       Formal_Charge:           0.0199993
##########                     HBond_Acceptors:                   8
##########                        HBond_Donors:                   2
##########                         Heavy_Atoms:                  30
##########                          Grid_Score:          -34.981846
##########                     Grid_vdw_energy:          -32.186417
##########                      Grid_es_energy:           -2.795431
##########           Internal_energy_repulsive:           13.697178

@<TRIPOS>MOLECULE
ZINC000912668252
 52 54 1 0 0
SMALL
USER_CHARGES


@<TRIPOS>ATOM
      1 C1        -11.1542   -0.2244   61.9038 C.3     1  ZINC000912668252   -0.1700
      2 C2        -12.0959   -1.1554   61.1376 C.3     1  ZINC000912668252    0.1100
      3 N3        -11.6463   -1.2689   59.7479 N.am    1  ZINC000912668252   -0.6100
      4 C4        -10.8547   -2.4271   59.3263 C.3     1  ZINC000912668252    0.1000
      5 C5         -9.3938   -2.0088   59.1479 C.3     1  ZINC000912668252   -0.1800
      6 C6        -11.9611   -0.3075   58.8572 C.2     1  ZINC000912668252    0.5600
      7 O7        -12.6180    0.6535   59.2070 O.2     1  ZINC000912668252   -0.5300
      8 C8        -11.5074   -0.4219   57.4546 C.ar    1  ZINC000912668252   -0.1100
      9 C9        -12.0819   -1.3714   56.6081 C.ar    1  ZINC000912668252   -0.1100
     10 C10       -11.6568   -1.4759   55.2991 C.ar    1  ZINC000912668252   -0.1000
     11 C11       -10.6627   -0.6426   54.8218 C.ar    1  ZINC000912668252   -0.1200
     12 C12       -10.0843    0.3061   55.6569 C.ar    1  ZINC000912668252    0.1400
     13 N13        -9.0783    1.1478   55.1685 N.am    1  ZINC000912668252   -0.6700
     14 C14        -9.3486    2.0126   54.1707 C.2     1  ZINC000912668252    0.5200
     15 O15       -10.4636    2.0614   53.6960 O.2     1  ZINC000912668252   -0.4900
     16 C16        -8.2654    2.9188   53.6450 C.3     1  ZINC000912668252    0.0500
     17 O17        -8.7108    3.5397   52.4103 O.3     1  ZINC000912668252   -0.3300
     18 C18        -7.8127    4.2950   51.7462 C.2     1  ZINC000912668252    0.5400
     19 O19        -8.0371    5.4734   51.5485 O.2     1  ZINC000912668252   -0.4800
     20 C20        -6.5630    3.6939   51.2615 C.2     1  ZINC000912668252    0.0400
     21 C21        -5.3600    4.3237   51.1931 C.2     1  ZINC000912668252   -0.0900
     22 C22        -4.4196    3.4019   50.6742 C.ar    1  ZINC000912668252   -0.1000
     23 C23        -3.0507    3.4836   50.3870 C.ar    1  ZINC000912668252   -0.0900
     24 C24        -2.3971    2.3964   49.8790 C.ar    1  ZINC000912668252    0.0700
     25 F25        -1.0771    2.4774   49.6027 F       1  ZINC000912668252   -0.1400
     26 C26        -3.0790    1.2071   49.6444 C.ar    1  ZINC000912668252   -0.1100
     27 C27        -4.4244    1.1039   49.9187 C.ar    1  ZINC000912668252   -0.1000
     28 C28        -5.1116    2.1980   50.4367 C.ar    1  ZINC000912668252    0.1100
     29 N29        -6.4211    2.3964   50.8081 N.pl3   1  ZINC000912668252   -0.5600
     30 C30       -10.5078    0.4225   56.9714 C.ar    1  ZINC000912668252   -0.0700
     31 H31       -11.4887   -0.1400   62.9379 H       1  ZINC000912668252    0.0700
     32 H32       -10.1432   -0.6312   61.8811 H       1  ZINC000912668252    0.0600
     33 H33       -11.1598    0.7613   61.4386 H       1  ZINC000912668252    0.0600
     34 H34       -12.0902   -2.1412   61.6029 H       1  ZINC000912668252    0.0800
     35 H35       -13.1069   -0.7487   61.1604 H       1  ZINC000912668252    0.0900
     36 H36       -10.9193   -3.2070   60.0850 H       1  ZINC000912668252    0.0900
     37 H37       -11.2418   -2.8071   58.3808 H       1  ZINC000912668252    0.0800
     38 H38        -9.2665   -1.5410   58.1717 H       1  ZINC000912668252    0.0600
     39 H39        -9.1211   -1.2992   59.9291 H       1  ZINC000912668252    0.0700
     40 H40        -8.7531   -2.8880   59.2159 H       1  ZINC000912668252    0.0700
     41 H41       -12.8586   -2.0245   56.9774 H       1  ZINC000912668252    0.1400
     42 H42       -12.1022   -2.2114   54.6457 H       1  ZINC000912668252    0.1400
     43 H43       -10.3340   -0.7292   53.7968 H       1  ZINC000912668252    0.1300
     44 H44        -8.1866    1.1087   55.5483 H       1  ZINC000912668252    0.4200
     45 H45        -8.0484    3.6915   54.3826 H       1  ZINC000912668252    0.1100
     46 H46        -7.3647    2.3355   53.4540 H       1  ZINC000912668252    0.1100
     47 H47        -5.1584    5.3446   51.4822 H       1  ZINC000912668252    0.1700
     48 H48        -2.5137    4.4033   50.5661 H       1  ZINC000912668252    0.1400
     49 H49        -2.5483    0.3565   49.2429 H       1  ZINC000912668252    0.1400
     50 H50        -4.9453    0.1764   49.7326 H       1  ZINC000912668252    0.1400
     51 H51        -7.1288    1.7349   50.7582 H       1  ZINC000912668252    0.4300
     52 H52       -10.0596    1.1592   57.6218 H       1  ZINC000912668252    0.1400
@<TRIPOS>BOND
     1     1     2    1
     2     1    31    1
     3     1    32    1
     4     1    33    1
     5     2     3    1
     6     2    34    1
     7     2    35    1
     8     3     4    1
     9     3     6   am
    10     4     5    1
    11     4    36    1
    12     4    37    1
    13     5    38    1
    14     5    39    1
    15     5    40    1
    16     6     7    2
    17     6     8    1
    18     8    30   ar
    19     8     9   ar
    20     9    10   ar
    21     9    41    1
    22    10    11   ar
    23    10    42    1
    24    11    12   ar
    25    11    43    1
    26    12    13    1
    27    12    30   ar
    28    13    14   am
    29    13    44    1
    30    14    15    2
    31    14    16    1
    32    16    17    1
    33    16    45    1
    34    16    46    1
    35    17    18    1
    36    18    19    2
    37    18    20    1
    38    20    29    1
    39    20    21    2
    40    21    22    1
    41    21    47    1
    42    22    28   ar
    43    22    23   ar
    44    23    24   ar
    45    23    48    1
    46    24    25    1
    47    24    26   ar
    48    26    27   ar
    49    26    49    1
    50    27    28   ar
    51    27    50    1
    52    28    29    1
    53    29    51    1
    54    30    52    1
@<TRIPOS>SUBSTRUCTURE
     1 ZINC000912668252        1 TEMP              0 ****  ****    0 ROOT


##########                                Name:    ZINC000517001504
##########                DOCK_Rotatable_Bonds:                   5
##########                         Heavy_Atoms:                  29
##########                    Molecular_Weight:             403.401
##########                DOCK_Rotatable_Bonds:                   5
##########                       Formal_Charge:          -0.0200002
##########                     HBond_Acceptors:                   7
##########                        HBond_Donors:                   0
##########                         Heavy_Atoms:                  29
##########                          Grid_Score:          -34.980515
##########                     Grid_vdw_energy:          -33.947166
##########                      Grid_es_energy:           -1.033347
##########           Internal_energy_repulsive:           33.447521

@<TRIPOS>MOLECULE
ZINC000517001504
 49 52 1 0 0
SMALL
USER_CHARGES


@<TRIPOS>ATOM
      1 O1         -6.7637    5.1451   51.6273 O.2     1  ZINC000517001504   -0.5200
      2 C2         -7.2608    4.0725   51.3565 C.2     1  ZINC000517001504    0.5400
      3 N3         -6.5086    3.1021   50.8007 N.am    1  ZINC000517001504   -0.6100
      4 C4         -7.0881    1.7908   50.4690 C.3     1  ZINC000517001504    0.0600
      5 C5         -6.1887    0.7007   51.0628 C.3     1  ZINC000517001504    0.0500
      6 O6         -4.8401    0.9231   50.6438 O.3     1  ZINC000517001504   -0.3700
      7 C7         -4.2820    2.1581   51.0990 C.3     1  ZINC000517001504    0.1200
      8 H8         -4.3289    2.1997   52.1872 H       1  ZINC000517001504    0.0800
      9 C9         -2.8458    2.2561   50.6530 C.ar    1  ZINC000517001504   -0.0600
     10 C10        -2.3231    1.3089   49.7924 C.ar    1  ZINC000517001504   -0.0900
     11 C11        -1.0058    1.3988   49.3833 C.ar    1  ZINC000517001504   -0.0700
     12 C12        -0.2113    2.4361   49.8344 C.ar    1  ZINC000517001504   -0.1800
     13 C13         1.2251    2.5339   49.3888 C.3     1  ZINC000517001504    0.5100
     14 F14         1.9849    1.5613   50.0477 F       1  ZINC000517001504   -0.1800
     15 F15         1.2999    2.3274   48.0073 F       1  ZINC000517001504   -0.1800
     16 F16         1.7239    3.8038   49.6983 F       1  ZINC000517001504   -0.1800
     17 C17        -0.7343    3.3841   50.6939 C.ar    1  ZINC000517001504   -0.0700
     18 C18        -2.0528    3.2963   51.0999 C.ar    1  ZINC000517001504   -0.1000
     19 C19        -5.0851    3.3248   50.5019 C.3     1  ZINC000517001504    0.0900
     20 C20        -8.7182    3.8227   51.6474 C.3     1  ZINC000517001504   -0.0600
     21 C21        -8.9318    2.8313   52.7621 C.ar    1  ZINC000517001504   -0.0700
     22 C22        -7.8759    2.4708   53.5781 C.ar    1  ZINC000517001504   -0.1200
     23 C23        -8.0719    1.5614   54.6007 C.ar    1  ZINC000517001504   -0.1100
     24 C24        -9.3238    1.0130   54.8075 C.ar    1  ZINC000517001504   -0.1100
     25 C25       -10.3798    1.3743   53.9919 C.ar    1  ZINC000517001504   -0.1100
     26 C26       -10.1849    2.2868   52.9722 C.ar    1  ZINC000517001504   -0.1000
     27 C27        -9.5476    5.1098   51.7958 C.3     1  ZINC000517001504   -0.1600
     28 C28        -9.7878    5.0250   50.3016 C.2     1  ZINC000517001504    0.3600
     29 O29       -10.0493    5.8090   49.4212 O.2     1  ZINC000517001504   -0.4100
     30 C30        -9.5570    3.5295   50.3914 C.3     1  ZINC000517001504   -0.1900
     31 H31        -8.0886    1.7134   50.8945 H       1  ZINC000517001504    0.1000
     32 H32        -7.1391    1.6753   49.3863 H       1  ZINC000517001504    0.0800
     33 H33        -6.2426    0.7370   52.1508 H       1  ZINC000517001504    0.0600
     34 H34        -6.5221   -0.2765   50.7135 H       1  ZINC000517001504    0.1100
     35 H35        -2.9439    0.4985   49.4400 H       1  ZINC000517001504    0.1400
     36 H36        -0.5972    0.6583   48.7116 H       1  ZINC000517001504    0.1400
     37 H37        -0.1136    4.1947   51.0460 H       1  ZINC000517001504    0.1400
     38 H38        -2.4614    4.0370   51.7715 H       1  ZINC000517001504    0.1400
     39 H39        -4.9321    3.3617   49.4233 H       1  ZINC000517001504    0.0800
     40 H40        -4.7594    4.2627   50.9516 H       1  ZINC000517001504    0.1100
     41 H41        -6.8978    2.8992   53.4166 H       1  ZINC000517001504    0.1300
     42 H42        -7.2467    1.2791   55.2378 H       1  ZINC000517001504    0.1300
     43 H43        -9.4767    0.3020   55.6059 H       1  ZINC000517001504    0.1300
     44 H44       -11.3579    0.9456   54.1533 H       1  ZINC000517001504    0.1300
     45 H45       -11.0100    2.5691   52.3350 H       1  ZINC000517001504    0.1200
     46 H46       -10.4510    4.9819   52.3922 H       1  ZINC000517001504    0.1300
     47 H47        -8.9595    5.9771   52.0959 H       1  ZINC000517001504    0.1100
     48 H48        -8.9763    3.1259   49.5619 H       1  ZINC000517001504    0.1000
     49 H49       -10.4629    2.9583   50.5938 H       1  ZINC000517001504    0.1400
@<TRIPOS>BOND
     1     1     2    2
     2     2     3   am
     3     2    20    1
     4     3    19    1
     5     3     4    1
     6     4     5    1
     7     4    31    1
     8     4    32    1
     9     5     6    1
    10     5    33    1
    11     5    34    1
    12     6     7    1
    13     7     8    1
    14     7     9    1
    15     7    19    1
    16     9    18   ar
    17     9    10   ar
    18    10    11   ar
    19    10    35    1
    20    11    12   ar
    21    11    36    1
    22    12    13    1
    23    12    17   ar
    24    13    14    1
    25    13    15    1
    26    13    16    1
    27    17    18   ar
    28    17    37    1
    29    18    38    1
    30    19    39    1
    31    19    40    1
    32    20    30    1
    33    20    21    1
    34    20    27    1
    35    21    26   ar
    36    21    22   ar
    37    22    23   ar
    38    22    41    1
    39    23    24   ar
    40    23    42    1
    41    24    25   ar
    42    24    43    1
    43    25    26   ar
    44    25    44    1
    45    26    45    1
    46    27    28    1
    47    27    46    1
    48    27    47    1
    49    28    29    2
    50    28    30    1
    51    30    48    1
    52    30    49    1
@<TRIPOS>SUBSTRUCTURE
     1 ZINC000517001504        1 TEMP              0 ****  ****    0 ROOT


##########                                Name:    ZINC000533131987
##########                DOCK_Rotatable_Bonds:                  11
##########                         Heavy_Atoms:                  30
##########                    Molecular_Weight:             419.403
##########                DOCK_Rotatable_Bonds:                  11
##########                       Formal_Charge:                0.01
##########                     HBond_Acceptors:                   9
##########                        HBond_Donors:                   3
##########                         Heavy_Atoms:                  30
##########                          Grid_Score:          -34.974522
##########                     Grid_vdw_energy:          -33.267426
##########                      Grid_es_energy:           -1.707094
##########           Internal_energy_repulsive:           62.848358

@<TRIPOS>MOLECULE
ZINC000533131987
 50 52 1 0 0
SMALL
USER_CHARGES


@<TRIPOS>ATOM
      1 O1         -0.6714    2.7971   50.6437 O.2     1  ZINC000533131987   -0.5700
      2 C2         -0.8517    2.3860   49.5137 C.2     1  ZINC000533131987    0.7100
      3 N3          0.2023    2.0735   48.7342 N.am    1  ZINC000533131987   -0.7400
      4 C4          1.5654    2.2347   49.2461 C.3     1  ZINC000533131987    0.1400
      5 C5          2.4503    2.8450   48.1574 C.3     1  ZINC000533131987   -0.0900
      6 H6          2.5564    2.1365   47.3358 H       1  ZINC000533131987    0.0900
      7 C7          1.8070    4.1332   47.6401 C.3     1  ZINC000533131987    0.0800
      8 O8          2.6332    4.7030   46.6228 O.3     1  ZINC000533131987   -0.5600
      9 C9          3.8296    3.1616   48.7392 C.3     1  ZINC000533131987   -0.0900
     10 C10         4.3092    1.9920   49.5596 C.ar    1  ZINC000533131987    0.0000
     11 C11         3.8846    1.8442   50.8666 C.ar    1  ZINC000533131987   -0.1100
     12 C12         4.3247    0.7712   51.6192 C.ar    1  ZINC000533131987   -0.0800
     13 C13         5.1888   -0.1539   51.0645 C.ar    1  ZINC000533131987   -0.1300
     14 C14         5.6130   -0.0065   49.7569 C.ar    1  ZINC000533131987   -0.0700
     15 C15         5.1697    1.0639   49.0031 C.ar    1  ZINC000533131987   -0.1700
     16 C16         5.6319    1.2245   47.5777 C.3     1  ZINC000533131987    0.5100
     17 F17         5.8867   -0.0353   47.0253 F       1  ZINC000533131987   -0.1800
     18 F18         4.6361    1.8670   46.8341 F       1  ZINC000533131987   -0.1700
     19 F19         6.8019    1.9910   47.5505 F       1  ZINC000533131987   -0.1800
     20 N20        -2.1057    2.2378   49.0428 N.am    1  ZINC000533131987   -0.6900
     21 C21        -3.2004    2.5624   49.8523 C.ar    1  ZINC000533131987    0.1600
     22 C22        -3.3259    3.8461   50.3689 C.ar    1  ZINC000533131987   -0.1000
     23 C23        -4.4053    4.1719   51.1691 C.ar    1  ZINC000533131987   -0.1000
     24 C24        -5.3651    3.2242   51.4601 C.ar    1  ZINC000533131987   -0.1000
     25 C25        -5.2480    1.9315   50.9459 C.ar    1  ZINC000533131987    0.0000
     26 C26        -6.2751    0.9142   51.2557 C.2     1  ZINC000533131987    0.2300
     27 N27        -6.3436   -0.2885   50.7356 N.2     1  ZINC000533131987   -0.4700
     28 C28        -7.4056   -0.9213   51.2567 C.2     1  ZINC000533131987   -0.0400
     29 C29        -8.0036   -0.0805   52.1203 C.2     1  ZINC000533131987   -0.0700
     30 O30        -7.2923    1.0642   52.1217 O.3     1  ZINC000533131987   -0.2000
     31 C31        -4.1623    1.6046   50.1341 C.ar    1  ZINC000533131987   -0.1000
     32 H32         0.0583    1.7418   47.8340 H       1  ZINC000533131987    0.4000
     33 H33         1.5518    2.8930   50.1148 H       1  ZINC000533131987    0.0700
     34 H34         1.9629    1.2614   49.5342 H       1  ZINC000533131987    0.0800
     35 H35         0.8243    3.9077   47.2261 H       1  ZINC000533131987    0.0400
     36 H36         1.7013    4.8419   48.4615 H       1  ZINC000533131987    0.0600
     37 H37         2.9924    4.0564   45.9998 H       1  ZINC000533131987    0.3800
     38 H38         4.5323    3.3483   47.9271 H       1  ZINC000533131987    0.0800
     39 H39         3.7625    4.0464   49.3723 H       1  ZINC000533131987    0.0900
     40 H40         3.2092    2.5671   51.2999 H       1  ZINC000533131987    0.1300
     41 H41         3.9933    0.6560   52.6407 H       1  ZINC000533131987    0.1300
     42 H42         5.5332   -0.9917   51.6526 H       1  ZINC000533131987    0.1300
     43 H43         6.2885   -0.7291   49.3235 H       1  ZINC000533131987    0.1300
     44 H44        -2.2497    1.9060   48.1427 H       1  ZINC000533131987    0.4100
     45 H45        -2.5776    4.5920   50.1448 H       1  ZINC000533131987    0.1500
     46 H46        -4.4974    5.1712   51.5680 H       1  ZINC000533131987    0.1400
     47 H47        -6.2066    3.4824   52.0858 H       1  ZINC000533131987    0.1300
     48 H48        -7.7240   -1.9268   51.0242 H       1  ZINC000533131987    0.1900
     49 H49        -8.8870   -0.2861   52.7064 H       1  ZINC000533131987    0.2200
     50 H50        -4.0664    0.6063   49.7335 H       1  ZINC000533131987    0.1400
@<TRIPOS>BOND
     1     1     2    2
     2     2     3   am
     3     2    20   am
     4     3     4    1
     5     3    32    1
     6     4     5    1
     7     4    33    1
     8     4    34    1
     9     5     6    1
    10     5     7    1
    11     5     9    1
    12     7     8    1
    13     7    35    1
    14     7    36    1
    15     8    37    1
    16     9    10    1
    17     9    38    1
    18     9    39    1
    19    10    15   ar
    20    10    11   ar
    21    11    12   ar
    22    11    40    1
    23    12    13   ar
    24    12    41    1
    25    13    14   ar
    26    13    42    1
    27    14    15   ar
    28    14    43    1
    29    15    16    1
    30    16    17    1
    31    16    18    1
    32    16    19    1
    33    20    21    1
    34    20    44    1
    35    21    31   ar
    36    21    22   ar
    37    22    23   ar
    38    22    45    1
    39    23    24   ar
    40    23    46    1
    41    24    25   ar
    42    24    47    1
    43    25    26    1
    44    25    31   ar
    45    26    30    1
    46    26    27    2
    47    27    28    1
    48    28    29    2
    49    28    48    1
    50    29    30    1
    51    29    49    1
    52    31    50    1
@<TRIPOS>SUBSTRUCTURE
     1 ZINC000533131987        1 TEMP              0 ****  ****    0 ROOT


##########                                Name:    ZINC000506388363
##########                DOCK_Rotatable_Bonds:                   5
##########                         Heavy_Atoms:                  29
##########                    Molecular_Weight:             416.858
##########                DOCK_Rotatable_Bonds:                   5
##########                       Formal_Charge:         7.07805e-07
##########                     HBond_Acceptors:                   8
##########                        HBond_Donors:                   1
##########                         Heavy_Atoms:                  29
##########                          Grid_Score:          -34.953186
##########                     Grid_vdw_energy:          -32.996517
##########                      Grid_es_energy:           -1.956667
##########           Internal_energy_repulsive:           13.169237

@<TRIPOS>MOLECULE
ZINC000506388363
 48 51 1 0 0
SMALL
USER_CHARGES


@<TRIPOS>ATOM
      1 O1        -15.3206    1.3741   52.2091 O.2     1  ZINC000506388363   -0.5300
      2 C2        -14.6605    0.5239   51.6445 C.2     1  ZINC000506388363    0.5600
      3 C3        -14.0969    0.7943   50.3046 C.ar    1  ZINC000506388363   -0.1200
      4 C4        -14.4709    0.0065   49.2150 C.ar    1  ZINC000506388363   -0.0900
      5 C5        -13.9421    0.2640   47.9668 C.ar    1  ZINC000506388363   -0.1100
      6 C6        -13.0423    1.3001   47.7937 C.ar    1  ZINC000506388363   -0.0900
      7 C7        -12.6665    2.0860   48.8702 C.ar    1  ZINC000506388363   -0.0400
      8 Cl8       -11.5370    3.3844   48.6427 Cl      1  ZINC000506388363   -0.0600
      9 C9        -13.1930    1.8422   50.1231 C.ar    1  ZINC000506388363   -0.0600
     10 N10       -14.4377   -0.6634   52.2422 N.am    1  ZINC000506388363   -0.6100
     11 C11       -13.6317   -1.7015   51.5818 C.3     1  ZINC000506388363    0.1000
     12 C12       -12.5534   -2.1771   52.5613 C.3     1  ZINC000506388363    0.0400
     13 N13       -13.1879   -2.5903   53.8201 N.3     1  ZINC000506388363   -0.5300
     14 C14       -12.2103   -3.2129   54.7227 C.3     1  ZINC000506388363    0.1200
     15 C15       -12.9353   -4.0196   55.7690 C.2     1  ZINC000506388363   -0.2100
     16 C16       -14.0462   -4.7626   55.5722 C.2     1  ZINC000506388363    0.0600
     17 N17       -14.3839   -5.3278   56.7511 N.pl3   1  ZINC000506388363   -0.4700
     18 N18       -13.4503   -4.9214   57.7130 N.2     1  ZINC000506388363   -0.2700
     19 C19       -12.5716   -4.1377   57.1247 C.2     1  ZINC000506388363    0.1300
     20 C20       -11.4092   -3.4852   57.7768 C.ar    1  ZINC000506388363   -0.0700
     21 C21       -10.3433   -4.2557   58.2419 C.ar    1  ZINC000506388363    0.1500
     22 F22       -10.3659   -5.5990   58.0994 F       1  ZINC000506388363   -0.1200
     23 C23        -9.2633   -3.6414   58.8486 C.ar    1  ZINC000506388363   -0.1600
     24 C24        -9.2383   -2.2666   58.9949 C.ar    1  ZINC000506388363   -0.0500
     25 C25       -10.2918   -1.4970   58.5360 C.ar    1  ZINC000506388363   -0.1600
     26 C26       -11.3751   -2.0982   57.9223 C.ar    1  ZINC000506388363    0.1600
     27 F27       -12.4035   -1.3452   57.4746 F       1  ZINC000506388363   -0.1200
     28 C28       -13.8622   -1.4603   54.4731 C.3     1  ZINC000506388363    0.0400
     29 C29       -14.9890   -0.9530   53.5746 C.3     1  ZINC000506388363    0.1200
     30 H30       -15.1728   -0.8034   49.3487 H       1  ZINC000506388363    0.1400
     31 H31       -14.2311   -0.3453   47.1233 H       1  ZINC000506388363    0.1400
     32 H32       -12.6308    1.4967   46.8147 H       1  ZINC000506388363    0.1400
     33 H33       -12.8998    2.4557   50.9621 H       1  ZINC000506388363    0.1400
     34 H34       -14.2706   -2.5402   51.3051 H       1  ZINC000506388363    0.0800
     35 H35       -13.1600   -1.2873   50.6908 H       1  ZINC000506388363    0.1000
     36 H36       -12.0172   -3.0223   52.1296 H       1  ZINC000506388363    0.0900
     37 H37       -11.8547   -1.3636   52.7561 H       1  ZINC000506388363    0.0400
     38 H38       -11.5527   -3.8672   54.1505 H       1  ZINC000506388363    0.1000
     39 H39       -11.6182   -2.4370   55.2079 H       1  ZINC000506388363    0.0400
     40 H40       -14.5719   -4.8831   54.6365 H       1  ZINC000506388363    0.1800
     41 H41       -15.1418   -5.9132   56.9053 H       1  ZINC000506388363    0.4400
     42 H42        -8.4376   -4.2368   59.2095 H       1  ZINC000506388363    0.1500
     43 H43        -8.3926   -1.7917   59.4698 H       1  ZINC000506388363    0.1500
     44 H44       -10.2663   -0.4238   58.6536 H       1  ZINC000506388363    0.1500
     45 H45       -14.2751   -1.7857   55.4280 H       1  ZINC000506388363    0.0900
     46 H46       -13.1452   -0.6568   54.6412 H       1  ZINC000506388363    0.0400
     47 H47       -15.4168   -0.0457   54.0007 H       1  ZINC000506388363    0.1000
     48 H48       -15.7601   -1.7186   53.4867 H       1  ZINC000506388363    0.0800
@<TRIPOS>BOND
     1     1     2    2
     2     2     3    1
     3     2    10   am
     4     3     9   ar
     5     3     4   ar
     6     4     5   ar
     7     4    30    1
     8     5     6   ar
     9     5    31    1
    10     6     7   ar
    11     6    32    1
    12     7     8    1
    13     7     9   ar
    14     9    33    1
    15    10    29    1
    16    10    11    1
    17    11    12    1
    18    11    34    1
    19    11    35    1
    20    12    13    1
    21    12    36    1
    22    12    37    1
    23    13    14    1
    24    13    28    1
    25    14    15    1
    26    14    38    1
    27    14    39    1
    28    15    19    1
    29    15    16    2
    30    16    17    1
    31    16    40    1
    32    17    18    1
    33    17    41    1
    34    18    19    2
    35    19    20    1
    36    20    26   ar
    37    20    21   ar
    38    21    22    1
    39    21    23   ar
    40    23    24   ar
    41    23    42    1
    42    24    25   ar
    43    24    43    1
    44    25    26   ar
    45    25    44    1
    46    26    27    1
    47    28    29    1
    48    28    45    1
    49    28    46    1
    50    29    47    1
    51    29    48    1
@<TRIPOS>SUBSTRUCTURE
     1 ZINC000506388363        1 TEMP              0 ****  ****    0 ROOT


##########                                Name:    ZINC001039825450
##########                DOCK_Rotatable_Bonds:                   8
##########                         Heavy_Atoms:                  24
##########                    Molecular_Weight:             337.339
##########                DOCK_Rotatable_Bonds:                   8
##########                       Formal_Charge:           0.0100001
##########                     HBond_Acceptors:                  11
##########                        HBond_Donors:                   4
##########                         Heavy_Atoms:                  24
##########                          Grid_Score:          -34.951332
##########                     Grid_vdw_energy:          -33.137436
##########                      Grid_es_energy:           -1.813898
##########           Internal_energy_repulsive:            4.705431

@<TRIPOS>MOLECULE
ZINC001039825450
 43 45 1 0 0
SMALL
USER_CHARGES


@<TRIPOS>ATOM
      1 O1        -11.2690   -4.0607   53.0110 O.2     1  ZINC001039825450   -0.5100
      2 C2        -11.7833   -2.9624   53.0260 C.2     1  ZINC001039825450    0.5000
      3 C3        -11.4439   -1.9569   51.9561 C.3     1  ZINC001039825450    0.1300
      4 N4        -10.2614   -1.1929   52.3613 N.pl3   1  ZINC001039825450   -0.1500
      5 N5        -10.2896   -0.1383   53.0967 N.2     1  ZINC001039825450   -0.2800
      6 C6         -9.0594    0.2914   53.2648 C.2     1  ZINC001039825450   -0.0200
      7 C7         -8.2440   -0.5976   52.5610 C.2     1  ZINC001039825450   -0.0200
      8 N8         -9.0532   -1.4886   52.0346 N.2     1  ZINC001039825450   -0.2800
      9 N9        -12.6625   -2.6431   53.9963 N.am    1  ZINC001039825450   -0.7300
     10 C10       -12.9924   -3.6206   55.0364 C.3     1  ZINC001039825450    0.1000
     11 C11       -13.5944   -2.8979   56.2431 C.3     1  ZINC001039825450    0.1100
     12 O12       -14.4734   -1.8543   55.8181 O.3     1  ZINC001039825450   -0.5400
     13 C13       -14.3326   -3.8990   57.1705 C.3     1  ZINC001039825450   -0.1600
     14 C14       -14.2431   -3.1790   58.5392 C.3     1  ZINC001039825450    0.1000
     15 N15       -12.9126   -2.5441   58.5454 N.am    1  ZINC001039825450   -0.6100
     16 C16       -12.2072   -2.2090   59.6437 C.2     1  ZINC001039825450    0.5200
     17 O17       -12.6616   -2.4286   60.7466 O.2     1  ZINC001039825450   -0.5100
     18 C18       -10.8539   -1.5614   59.5016 C.3     1  ZINC001039825450    0.1100
     19 H19       -10.7742   -1.0506   58.5421 H       1  ZINC001039825450    0.1200
     20 C20        -9.7342   -2.6096   59.6512 C.3     1  ZINC001039825450    0.1100
     21 N21        -8.9790   -2.1530   60.8275 N.am    1  ZINC001039825450   -0.7400
     22 C22        -9.5394   -1.0332   61.3028 C.2     1  ZINC001039825450    0.7100
     23 O23        -9.1142   -0.4402   62.2754 O.2     1  ZINC001039825450   -0.5800
     24 N24       -10.6122   -0.6228   60.6076 N.am    1  ZINC001039825450   -0.7200
     25 C25       -12.4824   -2.3376   57.1547 C.3     1  ZINC001039825450    0.1200
     26 H26       -11.2373   -2.4772   51.0207 H       1  ZINC001039825450    0.1400
     27 H27       -12.2848   -1.2776   51.8159 H       1  ZINC001039825450    0.1400
     28 H28        -8.7437    1.1553   53.8309 H       1  ZINC001039825450    0.2000
     29 H29        -7.1682   -0.5622   52.4714 H       1  ZINC001039825450    0.2000
     30 H30       -13.0768   -1.7661   54.0060 H       1  ZINC001039825450    0.4000
     31 H31       -13.7140   -4.3378   54.6453 H       1  ZINC001039825450    0.0900
     32 H32       -12.0873   -4.1457   55.3419 H       1  ZINC001039825450    0.0900
     33 H33       -15.0607   -1.5274   56.5134 H       1  ZINC001039825450    0.3800
     34 H34       -15.3705   -4.0247   56.8623 H       1  ZINC001039825450    0.0900
     35 H35       -13.8163   -4.8585   57.1992 H       1  ZINC001039825450    0.0900
     36 H36       -15.0244   -2.4236   58.6223 H       1  ZINC001039825450    0.0800
     37 H37       -14.3231   -3.8999   59.3529 H       1  ZINC001039825450    0.0800
     38 H38       -10.1571   -3.5985   59.8282 H       1  ZINC001039825450    0.0900
     39 H39        -9.0970   -2.6175   58.7668 H       1  ZINC001039825450    0.1000
     40 H40        -8.1989   -2.5930   61.1999 H       1  ZINC001039825450    0.4400
     41 H41       -11.1425    0.1650   60.8055 H       1  ZINC001039825450    0.4400
     42 H42       -11.5496   -2.8711   56.9722 H       1  ZINC001039825450    0.0900
     43 H43       -12.3468   -1.2733   56.9628 H       1  ZINC001039825450    0.0900
@<TRIPOS>BOND
     1     1     2    2
     2     2     3    1
     3     2     9   am
     4     3     4    1
     5     3    26    1
     6     3    27    1
     7     4     8    1
     8     4     5    1
     9     5     6    2
    10     6     7    1
    11     6    28    1
    12     7     8    2
    13     7    29    1
    14     9    10    1
    15     9    30    1
    16    10    11    1
    17    10    31    1
    18    10    32    1
    19    11    25    1
    20    11    12    1
    21    11    13    1
    22    12    33    1
    23    13    14    1
    24    13    34    1
    25    13    35    1
    26    14    15    1
    27    14    36    1
    28    14    37    1
    29    15    16   am
    30    15    25    1
    31    16    17    2
    32    16    18    1
    33    18    19    1
    34    18    24    1
    35    18    20    1
    36    20    21    1
    37    20    38    1
    38    20    39    1
    39    21    22   am
    40    21    40    1
    41    22    23    2
    42    22    24   am
    43    24    41    1
    44    25    42    1
    45    25    43    1
@<TRIPOS>SUBSTRUCTURE
     1 ZINC001039825450        1 TEMP              0 ****  ****    0 ROOT


##########                                Name:    ZINC000350493047
##########                DOCK_Rotatable_Bonds:                   7
##########                         Heavy_Atoms:                  24
##########                    Molecular_Weight:             330.387
##########                DOCK_Rotatable_Bonds:                   7
##########                       Formal_Charge:          -0.0300002
##########                     HBond_Acceptors:                   7
##########                        HBond_Donors:                   3
##########                         Heavy_Atoms:                  24
##########                          Grid_Score:          -34.912872
##########                     Grid_vdw_energy:          -34.196560
##########                      Grid_es_energy:           -0.716314
##########           Internal_energy_repulsive:            5.579073

@<TRIPOS>MOLECULE
ZINC000350493047
 46 48 1 0 0
SMALL
USER_CHARGES


@<TRIPOS>ATOM
      1 C1        -12.2689   -2.3211   52.9506 C.3     1  <0>        -0.1600
      2 C2        -11.0083   -2.0553   53.7759 C.3     1  <0>         0.2600
      3 H3        -10.3913   -2.9536   53.7962 H       1  <0>         0.1200
      4 N4        -11.3875   -1.6923   55.1436 N.am    1  <0>        -0.7400
      5 C5        -11.8046   -2.6436   56.0023 C.2     1  <0>         0.7100
      6 N6        -12.1519   -2.3099   57.2611 N.am    1  <0>        -0.8600
      7 O7        -11.8677   -3.8030   55.6414 O.2     1  <0>        -0.5900
      8 C8        -10.2296   -0.9250   53.1537 C.2     1  <0>         0.1700
      9 N9        -10.5916    0.3232   53.1088 N.2     1  <0>        -0.3800
     10 O10        -9.7509    0.9891   52.5424 O.3     1  <0>         0.0900
     11 C11        -8.7344    0.2019   52.1570 C.2     1  <0>         0.2400
     12 C12        -7.5156    0.6237   51.4380 C.ar    1  <0>        -0.0800
     13 C13        -7.3424    1.9625   51.0789 C.ar    1  <0>        -0.0200
     14 C14        -6.2039    2.3521   50.4081 C.ar    1  <0>        -0.2200
     15 C15        -5.2287    1.4152   50.0885 C.ar    1  <0>         0.1700
     16 O16        -4.1083    1.8031   49.4271 O.3     1  <0>        -0.3000
     17 C17        -2.9103    1.9256   50.1964 C.3     1  <0>         0.0800
     18 C18        -1.6975    1.7050   49.2902 C.3     1  <0>        -0.1500
     19 C19        -0.4149    1.8362   50.1139 C.3     1  <0>        -0.1200
     20 C20        -0.3443    3.2354   50.7286 C.3     1  <0>        -0.1300
     21 C21        -1.5572    3.4561   51.6349 C.3     1  <0>        -0.1200
     22 C22        -2.8399    3.3249   50.8112 C.3     1  <0>        -0.1200
     23 C23        -5.3971    0.0828   50.4444 C.ar    1  <0>        -0.1600
     24 C24        -6.5300   -0.3139   51.1204 C.ar    1  <0>        -0.0300
     25 N25        -9.0347   -1.0238   52.5510 N.2     1  <0>        -0.4700
     26 H26       -12.8860   -1.4228   52.9303 H       1  <0>         0.0600
     27 H27       -11.9868   -2.5911   51.9330 H       1  <0>         0.0700
     28 H28       -12.8321   -3.1386   53.4007 H       1  <0>         0.0800
     29 H29       -11.3382   -0.7672   55.4312 H       1  <0>         0.4000
     30 H30       -12.4510   -2.9949   57.8793 H       1  <0>         0.4000
     31 H31       -12.1028   -1.3849   57.5488 H       1  <0>         0.4200
     32 H32        -8.1002    2.6911   51.3263 H       1  <0>         0.1400
     33 H33        -6.0692    3.3869   50.1301 H       1  <0>         0.1400
     34 H34        -2.9108    1.1793   50.9909 H       1  <0>         0.0800
     35 H35        -1.7477    0.7081   48.8522 H       1  <0>         0.0700
     36 H36        -1.6970    2.4513   48.4957 H       1  <0>         0.0800
     37 H37        -0.4154    1.0899   50.9084 H       1  <0>         0.0600
     38 H38         0.4492    1.6790   49.4683 H       1  <0>         0.0700
     39 H39         0.5695    3.3289   51.3155 H       1  <0>         0.0700
     40 H40        -0.3438    3.9818   49.9342 H       1  <0>         0.0700
     41 H41        -1.5577    2.7098   52.4293 H       1  <0>         0.0700
     42 H42        -1.5070    4.4530   52.0728 H       1  <0>         0.0700
     43 H43        -2.8394    4.0713   50.0167 H       1  <0>         0.0800
     44 H44        -3.7039    3.4821   51.4568 H       1  <0>         0.0700
     45 H45        -4.6366   -0.6423   50.1945 H       1  <0>         0.1400
     46 H46        -6.6599   -1.3498   51.3970 H       1  <0>         0.1400
@<TRIPOS>BOND
     1     1     2    1
     2     1    26    1
     3     1    27    1
     4     1    28    1
     5     2     3    1
     6     2     4    1
     7     2     8    1
     8     4     5   am
     9     4    29    1
    10     5     6   am
    11     5     7    2
    12     6    30    1
    13     6    31    1
    14     8    25    1
    15     8     9    2
    16     9    10    1
    17    10    11    1
    18    11    12    1
    19    11    25    2
    20    12    24   ar
    21    12    13   ar
    22    13    14   ar
    23    13    32    1
    24    14    15   ar
    25    14    33    1
    26    15    16    1
    27    15    23   ar
    28    16    17    1
    29    17    22    1
    30    17    18    1
    31    17    34    1
    32    18    19    1
    33    18    35    1
    34    18    36    1
    35    19    20    1
    36    19    37    1
    37    19    38    1
    38    20    21    1
    39    20    39    1
    40    20    40    1
    41    21    22    1
    42    21    41    1
    43    21    42    1
    44    22    43    1
    45    22    44    1
    46    23    24   ar
    47    23    45    1
    48    24    46    1
@<TRIPOS>SUBSTRUCTURE
     1 <0>         1 TEMP              0 ****  ****    0 ROOT


##########                                Name:    ZINC000114394234
##########                DOCK_Rotatable_Bonds:                   9
##########                         Heavy_Atoms:                  27
##########                    Molecular_Weight:             365.392
##########                DOCK_Rotatable_Bonds:                   9
##########                       Formal_Charge:           0.0300002
##########                     HBond_Acceptors:                   8
##########                        HBond_Donors:                   3
##########                         Heavy_Atoms:                  27
##########                          Grid_Score:          -34.904629
##########                     Grid_vdw_energy:          -31.913363
##########                      Grid_es_energy:           -2.991266
##########           Internal_energy_repulsive:           10.606743

@<TRIPOS>MOLECULE
ZINC000114394234
 46 48 1 0 0
SMALL
USER_CHARGES


@<TRIPOS>ATOM
      1 C1          1.5174    1.0421   50.3566 C.3     1  ZINC000114394234   -0.1600
      2 C2          1.0293    2.0130   49.2796 C.3     1  ZINC000114394234    0.1300
      3 H3          1.6086    2.9349   49.3318 H       1  ZINC000114394234    0.1200
      4 N4          1.2003    1.4031   47.9585 N.am    1  ZINC000114394234   -0.7100
      5 C5          2.3556    1.5684   47.2844 C.2     1  ZINC000114394234    0.5200
      6 O6          3.2531    2.2234   47.7707 O.2     1  ZINC000114394234   -0.5100
      7 C7          2.5322    0.9395   45.9264 C.3     1  ZINC000114394234    0.0400
      8 O8          3.9117    0.6278   45.7215 O.3     1  ZINC000114394234   -0.2900
      9 C9          4.2411    0.0288   44.5469 C.ar    1  ZINC000114394234    0.1300
     10 C10         5.5615   -0.3060   44.2840 C.ar    1  ZINC000114394234   -0.2100
     11 C11         5.8936   -0.9153   43.0894 C.ar    1  ZINC000114394234   -0.0800
     12 C12         4.9115   -1.1913   42.1562 C.ar    1  ZINC000114394234   -0.1600
     13 C13         3.5949   -0.8581   42.4157 C.ar    1  ZINC000114394234   -0.0800
     14 C14         3.2566   -0.2543   43.6114 C.ar    1  ZINC000114394234   -0.1500
     15 C15        -0.4282    2.3222   49.5052 C.2     1  ZINC000114394234    0.5100
     16 O16        -1.1713    2.4671   48.5575 O.2     1  ZINC000114394234   -0.5100
     17 N17        -0.9062    2.4378   50.7600 N.am    1  ZINC000114394234   -0.6700
     18 C18        -2.2597    2.7250   50.9695 C.ar    1  ZINC000114394234    0.1300
     19 C19        -2.6572    4.0236   51.2624 C.ar    1  ZINC000114394234   -0.1200
     20 C20        -3.9932    4.3110   51.4698 C.ar    1  ZINC000114394234   -0.1000
     21 C21        -4.9397    3.3095   51.3878 C.ar    1  ZINC000114394234   -0.0900
     22 C22        -4.5497    2.0037   51.0950 C.ar    1  ZINC000114394234    0.0000
     23 C23        -5.5661    0.9258   51.0070 C.2     1  ZINC000114394234    0.2700
     24 N24        -6.7336    0.9218   51.6121 N.2     1  ZINC000114394234   -0.3000
     25 N25        -7.3690   -0.2787   51.2558 N.pl3   1  ZINC000114394234   -0.4800
     26 C26        -6.5217   -0.9327   50.4409 C.2     1  ZINC000114394234    0.2700
     27 N27        -5.4484   -0.2019   50.2933 N.2     1  ZINC000114394234   -0.5300
     28 C28        -3.2054    1.7145   50.8793 C.ar    1  ZINC000114394234   -0.0800
     29 H29         0.9381    0.1203   50.3043 H       1  ZINC000114394234    0.0700
     30 H30         2.5717    0.8184   50.1934 H       1  ZINC000114394234    0.0800
     31 H31         1.3901    1.4959   51.3394 H       1  ZINC000114394234    0.0800
     32 H32         0.4821    0.8803   47.5690 H       1  ZINC000114394234    0.4100
     33 H33         1.9409    0.0257   45.8694 H       1  ZINC000114394234    0.1000
     34 H34         2.1991    1.6363   45.1572 H       1  ZINC000114394234    0.1000
     35 H35         6.3292   -0.0900   45.0123 H       1  ZINC000114394234    0.1300
     36 H36         6.9214   -1.1761   42.8844 H       1  ZINC000114394234    0.1300
     37 H37         5.1732   -1.6674   41.2229 H       1  ZINC000114394234    0.1300
     38 H38         2.8296   -1.0744   41.6850 H       1  ZINC000114394234    0.1300
     39 H39         2.2281    0.0056   43.8135 H       1  ZINC000114394234    0.1300
     40 H40        -0.3120    2.3218   51.5179 H       1  ZINC000114394234    0.4200
     41 H41        -1.9205    4.8105   51.3283 H       1  ZINC000114394234    0.1300
     42 H42        -4.2974    5.3220   51.6972 H       1  ZINC000114394234    0.1400
     43 H43        -5.9826    3.5377   51.5510 H       1  ZINC000114394234    0.1400
     44 H44        -8.2464   -0.5778   51.5414 H       1  ZINC000114394234    0.4400
     45 H45        -6.6999   -1.8946   49.9832 H       1  ZINC000114394234    0.2300
     46 H46        -2.8984    0.7043   50.6521 H       1  ZINC000114394234    0.1500
@<TRIPOS>BOND
     1     1     2    1
     2     1    29    1
     3     1    30    1
     4     1    31    1
     5     2     3    1
     6     2     4    1
     7     2    15    1
     8     4     5   am
     9     4    32    1
    10     5     6    2
    11     5     7    1
    12     7     8    1
    13     7    33    1
    14     7    34    1
    15     8     9    1
    16     9    14   ar
    17     9    10   ar
    18    10    11   ar
    19    10    35    1
    20    11    12   ar
    21    11    36    1
    22    12    13   ar
    23    12    37    1
    24    13    14   ar
    25    13    38    1
    26    14    39    1
    27    15    16    2
    28    15    17   am
    29    17    18    1
    30    17    40    1
    31    18    28   ar
    32    18    19   ar
    33    19    20   ar
    34    19    41    1
    35    20    21   ar
    36    20    42    1
    37    21    22   ar
    38    21    43    1
    39    22    23    1
    40    22    28   ar
    41    23    27    1
    42    23    24    2
    43    24    25    1
    44    25    26    1
    45    25    44    1
    46    26    27    2
    47    26    45    1
    48    28    46    1
@<TRIPOS>SUBSTRUCTURE
     1 ZINC000114394234        1 TEMP              0 ****  ****    0 ROOT


##########                                Name:    ZINC001058772245
##########                DOCK_Rotatable_Bonds:                  11
##########                         Heavy_Atoms:                  22
##########                    Molecular_Weight:             335.375
##########                DOCK_Rotatable_Bonds:                  11
##########                       Formal_Charge:          0.00999964
##########                     HBond_Acceptors:                   9
##########                        HBond_Donors:                   2
##########                         Heavy_Atoms:                  22
##########                          Grid_Score:          -34.902626
##########                     Grid_vdw_energy:          -29.702925
##########                      Grid_es_energy:           -5.199703
##########           Internal_energy_repulsive:           71.053482

@<TRIPOS>MOLECULE
ZINC001058772245
 41 41 1 0 0
SMALL
USER_CHARGES


@<TRIPOS>ATOM
      1 C1        -12.2194   -0.1078   52.5313 C.3     1  ZINC001058772245   -0.1700
      2 C2        -11.3973   -1.2269   53.1736 C.3     1  ZINC001058772245   -0.1400
      3 C3        -11.8784   -2.5801   52.6463 C.3     1  ZINC001058772245   -0.1500
      4 C4         -9.9419   -1.0422   52.8292 C.2     1  ZINC001058772245    0.5300
      5 O5         -9.3501   -1.9040   52.2144 O.2     1  ZINC001058772245   -0.5200
      6 N6         -9.2978    0.0808   53.2044 N.am    1  ZINC001058772245   -0.5900
      7 C7        -10.0127    1.1218   53.9470 C.3     1  ZINC001058772245    0.0800
      8 C8         -9.1586    1.5820   55.1301 C.3     1  ZINC001058772245    0.0400
      9 O9         -8.9804    0.4950   56.0403 O.3     1  ZINC001058772245   -0.5700
     10 C10        -7.8830    0.2603   52.8696 C.3     1  ZINC001058772245    0.1100
     11 C11        -7.7298    1.4545   51.9254 C.3     1  ZINC001058772245    0.1000
     12 N12        -6.3183    1.8392   51.8496 N.am    1  ZINC001058772245   -0.7100
     13 C13        -5.7262    1.9963   50.6492 C.2     1  ZINC001058772245    0.6000
     14 O14        -6.3641    1.8202   49.6286 O.2     1  ZINC001058772245   -0.5300
     15 C15        -4.3068    2.3813   50.5729 C.2     1  ZINC001058772245    0.0000
     16 C16        -3.6450    2.9713   51.5938 C.2     1  ZINC001058772245   -0.2200
     17 S17        -2.0293    3.2553   51.1130 S.3     1  ZINC001058772245    0.2300
     18 C18        -2.3302    2.5705   49.5778 C.2     1  ZINC001058772245    0.0000
     19 N19        -3.5514    2.1752   49.4909 N.2     1  ZINC001058772245   -0.4400
     20 C20       -11.5718   -1.1803   54.6929 C.3     1  ZINC001058772245    0.2900
     21 F21       -12.6195   -0.3112   55.0154 F       1  ZINC001058772245   -0.1900
     22 F22       -11.8667   -2.4628   55.1680 F       1  ZINC001058772245   -0.2000
     23 H23       -13.2024   -0.0640   53.0002 H       1  ZINC001058772245    0.0800
     24 H24       -11.7078    0.8446   52.6704 H       1  ZINC001058772245    0.0700
     25 H25       -12.3336   -0.3065   51.4656 H       1  ZINC001058772245    0.0900
     26 H26       -11.5193   -2.7214   51.6269 H       1  ZINC001058772245    0.0800
     27 H27       -11.4906   -3.3763   53.2817 H       1  ZINC001058772245    0.0700
     28 H28       -12.9680   -2.6067   52.6545 H       1  ZINC001058772245    0.0900
     29 H29       -10.2080    1.9684   53.2887 H       1  ZINC001058772245    0.0900
     30 H30       -10.9576    0.7219   54.3147 H       1  ZINC001058772245    0.1200
     31 H31        -8.1862    1.9160   54.7681 H       1  ZINC001058772245    0.0600
     32 H32        -9.6586    2.4051   55.6406 H       1  ZINC001058772245    0.0700
     33 H33        -8.4269    0.7083   56.8041 H       1  ZINC001058772245    0.3800
     34 H34        -7.3141    0.4427   53.7812 H       1  ZINC001058772245    0.1000
     35 H35        -7.5082   -0.6393   52.3813 H       1  ZINC001058772245    0.0900
     36 H36        -8.0855    1.1804   50.9322 H       1  ZINC001058772245    0.0700
     37 H37        -8.3152    2.2931   52.3025 H       1  ZINC001058772245    0.0700
     38 H38        -5.8098    1.9809   52.6634 H       1  ZINC001058772245    0.4100
     39 H39        -4.0679    3.2220   52.5554 H       1  ZINC001058772245    0.1900
     40 H40        -1.5965    2.4788   48.7907 H       1  ZINC001058772245    0.2100
     41 H41       -10.6501   -0.8252   55.1538 H       1  ZINC001058772245    0.1200
@<TRIPOS>BOND
     1     1     2    1
     2     1    23    1
     3     1    24    1
     4     1    25    1
     5     2     3    1
     6     2     4    1
     7     2    20    1
     8     3    26    1
     9     3    27    1
    10     3    28    1
    11     4     5    2
    12     4     6   am
    13     6     7    1
    14     6    10    1
    15     7     8    1
    16     7    29    1
    17     7    30    1
    18     8     9    1
    19     8    31    1
    20     8    32    1
    21     9    33    1
    22    10    11    1
    23    10    34    1
    24    10    35    1
    25    11    12    1
    26    11    36    1
    27    11    37    1
    28    12    13   am
    29    12    38    1
    30    13    14    2
    31    13    15    1
    32    15    19    1
    33    15    16    2
    34    16    17    1
    35    16    39    1
    36    17    18    1
    37    18    19    2
    38    18    40    1
    39    20    21    1
    40    20    22    1
    41    20    41    1
@<TRIPOS>SUBSTRUCTURE
     1 ZINC001058772245        1 TEMP              0 ****  ****    0 ROOT


##########                                Name:    ZINC000938043669
##########                DOCK_Rotatable_Bonds:                   7
##########                         Heavy_Atoms:                  27
##########                    Molecular_Weight:             372.439
##########                DOCK_Rotatable_Bonds:                   7
##########                       Formal_Charge:           0.0499999
##########                     HBond_Acceptors:                   6
##########                        HBond_Donors:                   1
##########                         Heavy_Atoms:                  27
##########                          Grid_Score:          -34.878864
##########                     Grid_vdw_energy:          -32.856724
##########                      Grid_es_energy:           -2.022141
##########           Internal_energy_repulsive:           12.635283

@<TRIPOS>MOLECULE
ZINC000938043669
 52 55 1 0 0
SMALL
USER_CHARGES


@<TRIPOS>ATOM
      1 O1         -7.2645   -0.5600   51.0408 O.2     1  ZINC000938043669   -0.5000
      2 C2         -7.4067    0.3958   51.7738 C.2     1  ZINC000938043669    0.5300
      3 C3         -6.3856    1.5042   51.7733 C.3     1  ZINC000938043669    0.0500
      4 O4         -5.9697    1.7681   50.4319 O.3     1  ZINC000938043669   -0.2800
      5 C5         -4.6677    2.1122   50.2458 C.ar    1  ZINC000938043669    0.0900
      6 C6         -3.8074    1.2460   49.5892 C.ar    1  ZINC000938043669   -0.1800
      7 C7         -2.4842    1.5981   49.4005 C.ar    1  ZINC000938043669   -0.0900
      8 C8         -2.0171    2.8130   49.8658 C.ar    1  ZINC000938043669   -0.1300
      9 C9         -2.8718    3.6800   50.5218 C.ar    1  ZINC000938043669   -0.1100
     10 C10        -4.1981    3.3355   50.7084 C.ar    1  ZINC000938043669    0.0800
     11 F11        -5.0333    4.1823   51.3491 F       1  ZINC000938043669   -0.1300
     12 N12        -8.4807    0.4694   52.5847 N.am    1  ZINC000938043669   -0.6200
     13 C13        -8.7780    1.5679   53.5154 C.3     1  ZINC000938043669    0.1000
     14 C14       -10.1162    1.2329   54.2071 C.3     1  ZINC000938043669   -0.1400
     15 C15       -10.7811    0.2415   53.2159 C.3     1  ZINC000938043669    0.1300
     16 H16       -11.2845    0.7744   52.4092 H       1  ZINC000938043669    0.1100
     17 N17       -11.7106   -0.6522   53.9113 N.am    1  ZINC000938043669   -0.7200
     18 C18       -12.3568   -1.6170   53.2272 C.2     1  ZINC000938043669    0.5200
     19 O19       -12.1677   -1.7463   52.0362 O.2     1  ZINC000938043669   -0.5200
     20 C20       -13.3142   -2.5352   53.9422 C.3     1  ZINC000938043669   -0.1000
     21 H21       -13.9474   -3.0393   53.2122 H       1  ZINC000938043669    0.1000
     22 C22       -14.1878   -1.7178   54.8965 C.3     1  ZINC000938043669   -0.1100
     23 C23       -13.9815   -2.2140   56.3335 C.3     1  ZINC000938043669   -0.0600
     24 H24       -14.5560   -1.6110   57.0367 H       1  ZINC000938043669    0.0800
     25 C25       -12.4943   -2.1358   56.6448 C.2     1  ZINC000938043669   -0.1800
     26 C26       -11.7345   -2.8466   55.8148 C.2     1  ZINC000938043669   -0.1300
     27 C27       -12.5220   -3.5795   54.7392 C.3     1  ZINC000938043669   -0.0400
     28 H28       -11.8549   -4.1490   54.0921 H       1  ZINC000938043669    0.0900
     29 C29       -13.5207   -4.5080   55.4437 C.3     1  ZINC000938043669   -0.1200
     30 C30       -14.4108   -3.6862   56.4016 C.3     1  ZINC000938043669   -0.1100
     31 C31        -9.5553   -0.5354   52.6806 C.3     1  ZINC000938043669    0.1000
     32 H32        -6.8267    2.4048   52.2008 H       1  ZINC000938043669    0.1000
     33 H33        -5.5233    1.2041   52.3686 H       1  ZINC000938043669    0.1000
     34 H34        -4.1710    0.2964   49.2254 H       1  ZINC000938043669    0.1400
     35 H35        -1.8141    0.9228   48.8892 H       1  ZINC000938043669    0.1300
     36 H36        -0.9827    3.0854   49.7170 H       1  ZINC000938043669    0.1400
     37 H37        -2.5042    4.6285   50.8848 H       1  ZINC000938043669    0.1500
     38 H38        -7.9857    1.6477   54.2599 H       1  ZINC000938043669    0.0800
     39 H39        -8.8690    2.5049   52.9661 H       1  ZINC000938043669    0.0800
     40 H40        -9.9430    0.7558   55.1718 H       1  ZINC000938043669    0.0900
     41 H41       -10.7254    2.1293   54.3230 H       1  ZINC000938043669    0.1000
     42 H42       -11.8608   -0.5496   54.8641 H       1  ZINC000938043669    0.4000
     43 H43       -13.9098   -0.6659   54.8323 H       1  ZINC000938043669    0.0700
     44 H44       -15.2355   -1.8339   54.6192 H       1  ZINC000938043669    0.0800
     45 H45       -12.0923   -1.5571   57.4633 H       1  ZINC000938043669    0.1200
     46 H46       -10.6589   -2.8979   55.8969 H       1  ZINC000938043669    0.1200
     47 H47       -14.1521   -4.9937   54.6997 H       1  ZINC000938043669    0.0700
     48 H48       -12.9765   -5.2654   56.0080 H       1  ZINC000938043669    0.0700
     49 H49       -14.2835   -4.0530   57.4201 H       1  ZINC000938043669    0.0700
     50 H50       -15.4548   -3.7901   56.1063 H       1  ZINC000938043669    0.0700
     51 H51        -9.7728   -0.9579   51.6997 H       1  ZINC000938043669    0.0900
     52 H52        -9.2704   -1.3223   53.3789 H       1  ZINC000938043669    0.0700
@<TRIPOS>BOND
     1     1     2    2
     2     2     3    1
     3     2    12   am
     4     3     4    1
     5     3    32    1
     6     3    33    1
     7     4     5    1
     8     5    10   ar
     9     5     6   ar
    10     6     7   ar
    11     6    34    1
    12     7     8   ar
    13     7    35    1
    14     8     9   ar
    15     8    36    1
    16     9    10   ar
    17     9    37    1
    18    10    11    1
    19    12    31    1
    20    12    13    1
    21    13    14    1
    22    13    38    1
    23    13    39    1
    24    14    15    1
    25    14    40    1
    26    14    41    1
    27    15    16    1
    28    15    17    1
    29    15    31    1
    30    17    18   am
    31    17    42    1
    32    18    19    2
    33    18    20    1
    34    20    21    1
    35    20    27    1
    36    20    22    1
    37    22    23    1
    38    22    43    1
    39    22    44    1
    40    23    24    1
    41    23    30    1
    42    23    25    1
    43    25    26    2
    44    25    45    1
    45    26    27    1
    46    26    46    1
    47    27    28    1
    48    27    29    1
    49    29    30    1
    50    29    47    1
    51    29    48    1
    52    30    49    1
    53    30    50    1
    54    31    51    1
    55    31    52    1
@<TRIPOS>SUBSTRUCTURE
     1 ZINC000938043669        1 TEMP              0 ****  ****    0 ROOT


##########                                Name:    ZINC000076573199
##########                DOCK_Rotatable_Bonds:                  10
##########                         Heavy_Atoms:                  24
##########                    Molecular_Weight:             333.431
##########                DOCK_Rotatable_Bonds:                  10
##########                       Formal_Charge:          -0.0200009
##########                     HBond_Acceptors:                   6
##########                        HBond_Donors:                   3
##########                         Heavy_Atoms:                  24
##########                          Grid_Score:          -34.869373
##########                     Grid_vdw_energy:          -33.879280
##########                      Grid_es_energy:           -0.990092
##########           Internal_energy_repulsive:           20.950050

@<TRIPOS>MOLECULE
ZINC000076573199
 51 51 1 0 0
SMALL
USER_CHARGES


@<TRIPOS>ATOM
      1 C1        -11.3491   -3.7281   56.8493 C.3     1  ZINC000076573199   -0.1500
      2 C2        -11.6007   -2.9918   55.5319 C.3     1  ZINC000076573199   -0.1200
      3 C3        -13.1073   -2.8408   55.3117 C.3     1  ZINC000076573199   -0.1000
      4 H4        -13.5856   -2.5621   56.2506 H       1  ZINC000076573199    0.0700
      5 C5        -13.6862   -4.1684   54.8188 C.3     1  ZINC000076573199   -0.1500
      6 C6        -13.3635   -1.7533   54.2664 C.3     1  ZINC000076573199   -0.1200
      7 C7        -12.4674   -1.9940   53.0499 C.3     1  ZINC000076573199    0.1400
      8 H8        -12.1401   -3.0336   53.0396 H       1  ZINC000076573199    0.1000
      9 C9        -13.2519   -1.6937   51.7711 C.3     1  ZINC000076573199   -0.1700
     10 N10       -11.2979   -1.1147   53.1232 N.am    1  ZINC000076573199   -0.6900
     11 C11       -10.1073   -1.5361   52.6526 C.2     1  ZINC000076573199    0.5100
     12 O12       -10.0037   -2.6446   52.1694 O.2     1  ZINC000076573199   -0.5100
     13 C13        -8.9155   -0.6390   52.7257 C.2     1  ZINC000076573199    0.5100
     14 O14        -7.8490   -1.0091   52.2797 O.2     1  ZINC000076573199   -0.5000
     15 N15        -9.0241    0.5815   53.2869 N.am    1  ZINC000076573199   -0.6400
     16 C16        -7.9092    1.4208   53.3553 C.ar    1  ZINC000076573199    0.1500
     17 C17        -7.4827    1.9123   54.5831 C.ar    1  ZINC000076573199   -0.1300
     18 C18        -6.3799    2.7419   54.6513 C.ar    1  ZINC000076573199   -0.0800
     19 C19        -5.6978    3.0854   53.5001 C.ar    1  ZINC000076573199   -0.1200
     20 C20        -4.4953    3.9902   53.5794 C.3     1  ZINC000076573199   -0.1100
     21 C21        -6.1191    2.5973   52.2691 C.ar    1  ZINC000076573199    0.1600
     22 N22        -5.4275    2.9459   51.1038 N.am    1  ZINC000076573199   -0.6700
     23 C23        -4.6209    2.0476   50.5047 C.2     1  ZINC000076573199    0.5100
     24 C24        -3.8760    2.4229   49.2496 C.3     1  ZINC000076573199   -0.1700
     25 O25        -4.4945    0.9371   50.9756 O.2     1  ZINC000076573199   -0.5200
     26 C26        -7.2226    1.7600   52.1974 C.ar    1  ZINC000076573199   -0.1400
     27 H27       -11.8110   -4.7146   56.8079 H       1  ZINC000076573199    0.0600
     28 H28       -10.2759   -3.8357   57.0061 H       1  ZINC000076573199    0.0500
     29 H29       -11.7814   -3.1589   57.6721 H       1  ZINC000076573199    0.0500
     30 H30       -11.1390   -2.0053   55.5732 H       1  ZINC000076573199    0.0600
     31 H31       -11.1685   -3.5611   54.7091 H       1  ZINC000076573199    0.0600
     32 H32       -13.2691   -4.4057   53.8401 H       1  ZINC000076573199    0.0600
     33 H33       -13.4317   -4.9599   55.5238 H       1  ZINC000076573199    0.0600
     34 H34       -14.7702   -4.0857   54.7413 H       1  ZINC000076573199    0.0500
     35 H35       -14.4088   -1.7836   53.9593 H       1  ZINC000076573199    0.0800
     36 H36       -13.1390   -0.7768   54.6955 H       1  ZINC000076573199    0.0700
     37 H37       -12.6135   -1.8652   50.9044 H       1  ZINC000076573199    0.0600
     38 H38       -14.1220   -2.3479   51.7165 H       1  ZINC000076573199    0.0700
     39 H39       -13.5791   -0.6540   51.7813 H       1  ZINC000076573199    0.0600
     40 H40       -11.3804   -0.2292   53.5105 H       1  ZINC000076573199    0.4100
     41 H41        -9.8765    0.8773   53.6433 H       1  ZINC000076573199    0.4200
     42 H42        -8.0140    1.6459   55.4849 H       1  ZINC000076573199    0.1400
     43 H43        -6.0506    3.1229   55.6066 H       1  ZINC000076573199    0.1300
     44 H44        -3.5964    3.3887   53.7147 H       1  ZINC000076573199    0.0700
     45 H45        -4.4120    4.5655   52.6574 H       1  ZINC000076573199    0.0600
     46 H46        -4.6076    4.6706   54.4234 H       1  ZINC000076573199    0.0700
     47 H47        -5.5285    3.8340   50.7271 H       1  ZINC000076573199    0.4100
     48 H48        -3.2206    3.2693   49.4554 H       1  ZINC000076573199    0.0900
     49 H49        -3.2795    1.5748   48.9136 H       1  ZINC000076573199    0.1000
     50 H50        -4.5891    2.6964   48.4719 H       1  ZINC000076573199    0.0900
     51 H51        -7.5519    1.3793   51.2418 H       1  ZINC000076573199    0.1400
@<TRIPOS>BOND
     1     1     2    1
     2     1    27    1
     3     1    28    1
     4     1    29    1
     5     2     3    1
     6     2    30    1
     7     2    31    1
     8     3     4    1
     9     3     5    1
    10     3     6    1
    11     5    32    1
    12     5    33    1
    13     5    34    1
    14     6     7    1
    15     6    35    1
    16     6    36    1
    17     7     8    1
    18     7     9    1
    19     7    10    1
    20     9    37    1
    21     9    38    1
    22     9    39    1
    23    10    11   am
    24    10    40    1
    25    11    12    2
    26    11    13    1
    27    13    14    2
    28    13    15   am
    29    15    16    1
    30    15    41    1
    31    16    26   ar
    32    16    17   ar
    33    17    18   ar
    34    17    42    1
    35    18    19   ar
    36    18    43    1
    37    19    20    1
    38    19    21   ar
    39    20    44    1
    40    20    45    1
    41    20    46    1
    42    21    22    1
    43    21    26   ar
    44    22    23   am
    45    22    47    1
    46    23    24    1
    47    23    25    2
    48    24    48    1
    49    24    49    1
    50    24    50    1
    51    26    51    1
@<TRIPOS>SUBSTRUCTURE
     1 ZINC000076573199        1 TEMP              0 ****  ****    0 ROOT


##########                                Name:    ZINC000646817380
##########                DOCK_Rotatable_Bonds:                   6
##########                         Heavy_Atoms:                  25
##########                    Molecular_Weight:             347.457
##########                DOCK_Rotatable_Bonds:                   6
##########                       Formal_Charge:           0.0199991
##########                     HBond_Acceptors:                   6
##########                        HBond_Donors:                   1
##########                         Heavy_Atoms:                  25
##########                          Grid_Score:          -34.860058
##########                     Grid_vdw_energy:          -35.224411
##########                      Grid_es_energy:            0.364354
##########           Internal_energy_repulsive:           72.343292

@<TRIPOS>MOLECULE
ZINC000646817380
 54 56 1 0 0
SMALL
USER_CHARGES


@<TRIPOS>ATOM
      1 C1        -13.4816   -1.8755   53.1719 C.3     1  ZINC000646817380   -0.1500
      2 C2        -12.3274   -2.2039   54.1211 C.3     1  ZINC000646817380   -0.0100
      3 C3        -12.1113   -3.7181   54.1565 C.3     1  ZINC000646817380   -0.1500
      4 C4        -11.0705   -1.5282   53.6364 C.2     1  ZINC000646817380   -0.0100
      5 C5        -10.2528   -1.9563   52.6479 C.2     1  ZINC000646817380   -0.2200
      6 C6         -9.2330   -0.9688   52.5954 C.2     1  ZINC000646817380    0.2400
      7 N7         -8.1369   -0.9429   51.7351 N.am    1  ZINC000646817380   -0.6100
      8 C8         -7.2427    0.0624   51.8131 C.2     1  ZINC000646817380    0.5200
      9 O9         -7.3912    0.9445   52.6332 O.2     1  ZINC000646817380   -0.4900
     10 C10        -6.0688    0.0911   50.8897 C.2     1  ZINC000646817380    0.5300
     11 O11        -5.8432   -0.8561   50.1654 O.2     1  ZINC000646817380   -0.5100
     12 N12        -5.2601    1.1689   50.8611 N.am    1  ZINC000646817380   -0.5800
     13 C13        -4.0757    1.3289   50.0049 C.3     1  ZINC000646817380    0.1000
     14 C14        -3.4549    2.7030   50.3337 C.3     1  ZINC000646817380   -0.1300
     15 C15        -3.9969    2.9975   51.7573 C.3     1  ZINC000646817380   -0.1000
     16 H16        -3.3944    2.4979   52.5160 H       1  ZINC000646817380    0.1000
     17 C17        -4.0633    4.5036   52.0181 C.3     1  ZINC000646817380   -0.0700
     18 H18        -4.2275    5.0375   51.0822 H       1  ZINC000646817380    0.0800
     19 C19        -5.2001    4.8182   53.0125 C.3     1  ZINC000646817380   -0.1300
     20 C20        -4.6353    5.9672   53.8841 C.3     1  ZINC000646817380   -0.1300
     21 C21        -3.1469    5.5712   54.0490 C.3     1  ZINC000646817380   -0.1200
     22 C22        -2.7574    4.9827   52.6760 C.3     1  ZINC000646817380   -0.0700
     23 C23        -1.8016    3.8027   52.8638 C.3     1  ZINC000646817380   -0.1600
     24 C24        -2.0980    6.0597   51.8122 C.3     1  ZINC000646817380   -0.1400
     25 C25        -5.4201    2.3851   51.6788 C.3     1  ZINC000646817380    0.0900
     26 N26        -9.5293   -0.0889   53.5159 N.2     1  ZINC000646817380   -0.3800
     27 O27       -10.5482   -0.3826   54.0971 O.3     1  ZINC000646817380    0.1100
     28 H28       -14.3906   -2.3642   53.5226 H       1  ZINC000646817380    0.0700
     29 H29       -13.6355   -0.7967   53.1467 H       1  ZINC000646817380    0.0600
     30 H30       -13.2407   -2.2316   52.1702 H       1  ZINC000646817380    0.0600
     31 H31       -12.5682   -1.8478   55.1228 H       1  ZINC000646817380    0.1100
     32 H32       -11.8704   -4.0743   53.1548 H       1  ZINC000646817380    0.0600
     33 H33       -11.2891   -3.9521   54.8327 H       1  ZINC000646817380    0.0600
     34 H34       -13.0203   -4.2068   54.5071 H       1  ZINC000646817380    0.0700
     35 H35       -10.3519   -2.8433   52.0398 H       1  ZINC000646817380    0.1900
     36 H36        -8.0175   -1.6486   51.0804 H       1  ZINC000646817380    0.4300
     37 H37        -3.3565    0.5373   50.2150 H       1  ZINC000646817380    0.0800
     38 H38        -4.3697    1.2965   48.9558 H       1  ZINC000646817380    0.0800
     39 H39        -2.3665    2.6427   50.3403 H       1  ZINC000646817380    0.0900
     40 H40        -3.7960    3.4594   49.6270 H       1  ZINC000646817380    0.0800
     41 H41        -6.0927    5.1466   52.4799 H       1  ZINC000646817380    0.0700
     42 H42        -5.4211    3.9458   53.6277 H       1  ZINC000646817380    0.0800
     43 H43        -4.7258    6.9234   53.3687 H       1  ZINC000646817380    0.0700
     44 H44        -5.1358    5.9998   54.8518 H       1  ZINC000646817380    0.0700
     45 H45        -2.5411    6.4493   54.2729 H       1  ZINC000646817380    0.0700
     46 H46        -3.0362    4.8206   54.8316 H       1  ZINC000646817380    0.0700
     47 H47        -2.1054    3.2244   53.7364 H       1  ZINC000646817380    0.0700
     48 H48        -1.8308    3.1672   51.9787 H       1  ZINC000646817380    0.0600
     49 H49        -0.7880    4.1759   53.0099 H       1  ZINC000646817380    0.0500
     50 H50        -1.1878    6.4093   52.2993 H       1  ZINC000646817380    0.0600
     51 H51        -1.8503    5.6415   50.8366 H       1  ZINC000646817380    0.0500
     52 H52        -2.7862    6.8953   51.6852 H       1  ZINC000646817380    0.0600
     53 H53        -6.1073    3.0827   51.2000 H       1  ZINC000646817380    0.0900
     54 H54        -5.7763    2.1242   52.6753 H       1  ZINC000646817380    0.1000
@<TRIPOS>BOND
     1     1     2    1
     2     1    28    1
     3     1    29    1
     4     1    30    1
     5     2     3    1
     6     2     4    1
     7     2    31    1
     8     3    32    1
     9     3    33    1
    10     3    34    1
    11     4    27    1
    12     4     5    2
    13     5     6    1
    14     5    35    1
    15     6     7    1
    16     6    26    2
    17     7     8   am
    18     7    36    1
    19     8     9    2
    20     8    10    1
    21    10    11    2
    22    10    12   am
    23    12    25    1
    24    12    13    1
    25    13    14    1
    26    13    37    1
    27    13    38    1
    28    14    15    1
    29    14    39    1
    30    14    40    1
    31    15    16    1
    32    15    17    1
    33    15    25    1
    34    17    18    1
    35    17    22    1
    36    17    19    1
    37    19    20    1
    38    19    41    1
    39    19    42    1
    40    20    21    1
    41    20    43    1
    42    20    44    1
    43    21    22    1
    44    21    45    1
    45    21    46    1
    46    22    23    1
    47    22    24    1
    48    23    47    1
    49    23    48    1
    50    23    49    1
    51    24    50    1
    52    24    51    1
    53    24    52    1
    54    25    53    1
    55    25    54    1
    56    26    27    1
@<TRIPOS>SUBSTRUCTURE
     1 ZINC000646817380        1 TEMP              0 ****  ****    0 ROOT


##########                                Name:    ZINC000970996691
##########                DOCK_Rotatable_Bonds:                   7
##########                         Heavy_Atoms:                  24
##########                    Molecular_Weight:             334.462
##########                DOCK_Rotatable_Bonds:                   7
##########                       Formal_Charge:          -0.0199999
##########                     HBond_Acceptors:                   6
##########                        HBond_Donors:                   0
##########                         Heavy_Atoms:                  24
##########                          Grid_Score:          -34.850147
##########                     Grid_vdw_energy:          -33.940544
##########                      Grid_es_energy:           -0.909603
##########           Internal_energy_repulsive:           16.147026

@<TRIPOS>MOLECULE
ZINC000970996691
 54 56 1 0 0
SMALL
USER_CHARGES


@<TRIPOS>ATOM
      1 C1         -9.1858    1.5005   67.0472 C.3     1  ZINC000970996691   -0.1500
      2 C2         -7.7789    0.9600   66.7840 C.3     1  ZINC000970996691   -0.1200
      3 C3         -7.2969    1.4388   65.4130 C.3     1  ZINC000970996691   -0.0300
      4 C4         -8.2354    0.9355   64.3468 C.2     1  ZINC000970996691    0.1800
      5 N5         -8.5025    1.5184   63.2029 N.2     1  ZINC000970996691   -0.4700
      6 C6         -9.3847    0.7138   62.5838 C.2     1  ZINC000970996691    0.1800
      7 C7        -10.0037    0.9438   61.2292 C.3     1  ZINC000970996691    0.1500
      8 N8        -10.9276   -0.1555   60.9201 N.3     1  ZINC000970996691   -0.5200
      9 C9        -12.2337    0.3601   60.4883 C.3     1  ZINC000970996691    0.0200
     10 C10       -10.3562   -1.0549   59.9087 C.3     1  ZINC000970996691    0.0700
     11 H11        -9.8399   -0.4893   59.1331 H       1  ZINC000970996691    0.0600
     12 C12        -9.4091   -2.0958   60.5617 C.3     1  ZINC000970996691   -0.1300
     13 C13        -9.4684   -3.2827   59.5771 C.3     1  ZINC000970996691    0.1000
     14 N14       -10.7200   -3.1563   58.8162 N.am    1  ZINC000970996691   -0.6200
     15 C15       -11.1340   -3.9895   57.8410 C.2     1  ZINC000970996691    0.5300
     16 O16       -10.4513   -4.9411   57.5259 O.2     1  ZINC000970996691   -0.5300
     17 C17       -12.4453   -3.7384   57.1420 C.3     1  ZINC000970996691   -0.1000
     18 C18       -12.1856   -3.0374   55.8071 C.3     1  ZINC000970996691   -0.1100
     19 C19       -13.5170   -2.7826   55.0974 C.3     1  ZINC000970996691   -0.1200
     20 C20       -14.2233   -4.1159   54.8443 C.3     1  ZINC000970996691   -0.1200
     21 C21       -14.4830   -4.8171   56.1792 C.3     1  ZINC000970996691   -0.1200
     22 C22       -13.1517   -5.0719   56.8888 C.3     1  ZINC000970996691   -0.1000
     23 C23       -11.4483   -1.9674   59.2967 C.3     1  ZINC000970996691    0.1200
     24 N24        -9.6051   -0.2985   63.3682 N.2     1  ZINC000970996691   -0.3800
     25 O25        -8.9500   -0.1933   64.3836 O.3     1  ZINC000970996691    0.0800
     26 H26        -9.1658    2.5901   67.0293 H       1  ZINC000970996691    0.0600
     27 H27        -9.8649    1.1368   66.2760 H       1  ZINC000970996691    0.0600
     28 H28        -9.5292    1.1594   68.0239 H       1  ZINC000970996691    0.0600
     29 H29        -7.0998    1.3237   67.5552 H       1  ZINC000970996691    0.0700
     30 H30        -7.7989   -0.1296   66.8019 H       1  ZINC000970996691    0.0700
     31 H31        -7.2773    2.5284   65.3951 H       1  ZINC000970996691    0.1100
     32 H32        -6.2944    1.0542   65.2258 H       1  ZINC000970996691    0.1000
     33 H33       -10.5498    1.8870   61.2347 H       1  ZINC000970996691    0.0700
     34 H34        -9.2193    0.9826   60.4733 H       1  ZINC000970996691    0.1100
     35 H35       -12.1057    0.9709   59.5947 H       1  ZINC000970996691    0.0300
     36 H36       -12.8983   -0.4746   60.2659 H       1  ZINC000970996691    0.0800
     37 H37       -12.6659    0.9667   61.2843 H       1  ZINC000970996691    0.0700
     38 H38        -8.3946   -1.7035   60.6320 H       1  ZINC000970996691    0.0800
     39 H39        -9.7785   -2.3907   61.5440 H       1  ZINC000970996691    0.0900
     40 H40        -8.6165   -3.2442   58.8984 H       1  ZINC000970996691    0.0700
     41 H41        -9.4634   -4.2227   60.1289 H       1  ZINC000970996691    0.0700
     42 H42       -13.0755   -3.1065   57.7677 H       1  ZINC000970996691    0.0900
     43 H43       -11.6825   -2.0874   55.9874 H       1  ZINC000970996691    0.0700
     44 H44       -11.5555   -3.6694   55.1813 H       1  ZINC000970996691    0.0700
     45 H45       -14.1471   -2.1507   55.7232 H       1  ZINC000970996691    0.0600
     46 H46       -13.3320   -2.2831   54.1464 H       1  ZINC000970996691    0.0700
     47 H47       -15.1718   -3.9344   54.3387 H       1  ZINC000970996691    0.0600
     48 H48       -13.5931   -4.7479   54.2185 H       1  ZINC000970996691    0.0600
     49 H49       -15.1132   -4.1851   56.8049 H       1  ZINC000970996691    0.0600
     50 H50       -14.9863   -5.7669   55.9989 H       1  ZINC000970996691    0.0700
     51 H51       -12.5215   -5.7038   56.2631 H       1  ZINC000970996691    0.0800
     52 H52       -13.3367   -5.5713   57.8399 H       1  ZINC000970996691    0.0600
     53 H53       -12.1758   -2.2499   60.0576 H       1  ZINC000970996691    0.0800
     54 H54       -11.9429   -1.4641   58.4660 H       1  ZINC000970996691    0.0800
@<TRIPOS>BOND
     1     1     2    1
     2     1    26    1
     3     1    27    1
     4     1    28    1
     5     2     3    1
     6     2    29    1
     7     2    30    1
     8     3     4    1
     9     3    31    1
    10     3    32    1
    11     4    25    1
    12     4     5    2
    13     5     6    1
    14     6     7    1
    15     6    24    2
    16     7     8    1
    17     7    33    1
    18     7    34    1
    19     8     9    1
    20     8    10    1
    21     9    35    1
    22     9    36    1
    23     9    37    1
    24    10    11    1
    25    10    23    1
    26    10    12    1
    27    12    13    1
    28    12    38    1
    29    12    39    1
    30    13    14    1
    31    13    40    1
    32    13    41    1
    33    14    15   am
    34    14    23    1
    35    15    16    2
    36    15    17    1
    37    17    22    1
    38    17    18    1
    39    17    42    1
    40    18    19    1
    41    18    43    1
    42    18    44    1
    43    19    20    1
    44    19    45    1
    45    19    46    1
    46    20    21    1
    47    20    47    1
    48    20    48    1
    49    21    22    1
    50    21    49    1
    51    21    50    1
    52    22    51    1
    53    22    52    1
    54    23    53    1
    55    23    54    1
    56    24    25    1
@<TRIPOS>SUBSTRUCTURE
     1 ZINC000970996691        1 TEMP              0 ****  ****    0 ROOT


##########                                Name:    ZINC000269287897
##########                DOCK_Rotatable_Bonds:                   8
##########                         Heavy_Atoms:                  23
##########                    Molecular_Weight:             385.301
##########                DOCK_Rotatable_Bonds:                   8
##########                       Formal_Charge:           0.0300002
##########                     HBond_Acceptors:                   5
##########                        HBond_Donors:                   1
##########                         Heavy_Atoms:                  23
##########                          Grid_Score:          -34.828239
##########                     Grid_vdw_energy:          -34.319454
##########                      Grid_es_energy:           -0.508787
##########           Internal_energy_repulsive:           11.441925

@<TRIPOS>MOLECULE
ZINC000269287897
 48 49 1 0 0
SMALL
USER_CHARGES


@<TRIPOS>ATOM
      1 C1         -7.7443   -1.2024   52.0121 C.3     1  ZINC000269287897    0.0300
      2 O2         -9.0767   -0.8011   52.3373 O.3     1  ZINC000269287897   -0.3800
      3 C3        -10.0531   -1.8291   52.1591 C.3     1  ZINC000269287897    0.0600
      4 C4        -11.4163   -1.3263   52.6387 C.3     1  ZINC000269287897    0.0600
      5 O5        -12.3899   -2.3591   52.4740 O.3     1  ZINC000269287897   -0.3800
      6 C6        -12.2508   -3.4416   53.3964 C.3     1  ZINC000269287897    0.0700
      7 C7        -12.8297   -3.0336   54.7526 C.3     1  ZINC000269287897   -0.1000
      8 H8        -13.4673   -2.1550   54.6545 H       1  ZINC000269287897    0.1000
      9 C9        -13.6017   -4.2110   55.4047 C.3     1  ZINC000269287897   -0.1200
     10 C10       -13.4996   -3.8983   56.9125 C.3     1  ZINC000269287897    0.1000
     11 N11       -12.3376   -3.0168   57.0978 N.am    1  ZINC000269287897   -0.6300
     12 C12       -11.9213   -2.5022   58.2719 C.2     1  ZINC000269287897    0.7300
     13 O13       -12.5238   -2.7596   59.2962 O.2     1  ZINC000269287897   -0.5600
     14 N14       -10.8373   -1.7024   58.3105 N.am    1  ZINC000269287897   -0.6900
     15 C15       -10.4049   -1.1680   59.5299 C.ar    1  ZINC000269287897    0.1800
     16 C16       -10.8905    0.0581   59.9633 C.ar    1  ZINC000269287897   -0.0600
     17 C17       -11.8844    0.8159   59.1213 C.3     1  ZINC000269287897   -0.1000
     18 C18       -10.4623    0.5827   61.1675 C.ar    1  ZINC000269287897   -0.0900
     19 C19        -9.5509   -0.1118   61.9411 C.ar    1  ZINC000269287897   -0.0800
     20 C20        -9.0862    0.4639   63.2540 C.3     1  ZINC000269287897   -0.1100
     21 C21        -9.0650   -1.3339   61.5130 C.ar    1  ZINC000269287897   -0.0900
     22 C22        -9.4928   -1.8664   60.3120 C.ar    1  ZINC000269287897   -0.1000
     23 Br23       -8.8286   -3.5376   59.7273 Br      1  ZINC000269287897   -0.0500
     24 C24       -11.7024   -2.7890   55.7865 C.3     1  ZINC000269287897    0.1400
     25 H25        -7.4511   -2.0380   52.6476 H       1  ZINC000269287897    0.0400
     26 H26        -7.7019   -1.5085   50.9668 H       1  ZINC000269287897    0.0400
     27 H27        -7.0635   -0.3666   52.1738 H       1  ZINC000269287897    0.0900
     28 H28       -10.1142   -2.0931   51.1034 H       1  ZINC000269287897    0.0600
     29 H29        -9.7658   -2.7073   52.7373 H       1  ZINC000269287897    0.0600
     30 H30       -11.3523   -1.0518   53.6917 H       1  ZINC000269287897    0.0700
     31 H31       -11.7086   -0.4547   52.0532 H       1  ZINC000269287897    0.0600
     32 H32       -12.7880   -4.3118   53.0191 H       1  ZINC000269287897    0.0600
     33 H33       -11.1952   -3.6878   53.5112 H       1  ZINC000269287897    0.0500
     34 H34       -14.6426   -4.2157   55.0814 H       1  ZINC000269287897    0.0900
     35 H35       -13.1209   -5.1619   55.1747 H       1  ZINC000269287897    0.0800
     36 H36       -14.4053   -3.3933   57.2485 H       1  ZINC000269287897    0.0700
     37 H37       -13.3576   -4.8217   57.4739 H       1  ZINC000269287897    0.0700
     38 H38       -10.3566   -1.4971   57.4933 H       1  ZINC000269287897    0.4100
     39 H39       -12.8921    0.6298   59.4929 H       1  ZINC000269287897    0.0900
     40 H40       -11.6682    1.8828   59.1761 H       1  ZINC000269287897    0.0600
     41 H41       -11.8118    0.4831   58.0859 H       1  ZINC000269287897    0.0600
     42 H42       -10.8397    1.5367   61.5048 H       1  ZINC000269287897    0.1300
     43 H43        -9.7465    0.1262   64.0528 H       1  ZINC000269287897    0.0700
     44 H44        -8.0690    0.1293   63.4577 H       1  ZINC000269287897    0.0700
     45 H45        -9.1070    1.5523   63.2012 H       1  ZINC000269287897    0.0700
     46 H46        -8.3531   -1.8739   62.1195 H       1  ZINC000269287897    0.1400
     47 H47       -10.8871   -3.4957   55.6321 H       1  ZINC000269287897    0.0700
     48 H48       -11.3364   -1.7648   55.7151 H       1  ZINC000269287897    0.0900
@<TRIPOS>BOND
     1     1     2    1
     2     1    25    1
     3     1    26    1
     4     1    27    1
     5     2     3    1
     6     3     4    1
     7     3    28    1
     8     3    29    1
     9     4     5    1
    10     4    30    1
    11     4    31    1
    12     5     6    1
    13     6     7    1
    14     6    32    1
    15     6    33    1
    16     7     8    1
    17     7    24    1
    18     7     9    1
    19     9    10    1
    20     9    34    1
    21     9    35    1
    22    10    11    1
    23    10    36    1
    24    10    37    1
    25    11    12   am
    26    11    24    1
    27    12    13    2
    28    12    14   am
    29    14    15    1
    30    14    38    1
    31    15    22   ar
    32    15    16   ar
    33    16    17    1
    34    16    18   ar
    35    17    39    1
    36    17    40    1
    37    17    41    1
    38    18    19   ar
    39    18    42    1
    40    19    20    1
    41    19    21   ar
    42    20    43    1
    43    20    44    1
    44    20    45    1
    45    21    22   ar
    46    21    46    1
    47    22    23    1
    48    24    47    1
    49    24    48    1
@<TRIPOS>SUBSTRUCTURE
     1 ZINC000269287897        1 TEMP              0 ****  ****    0 ROOT


##########                                Name:    ZINC001492779707
##########                DOCK_Rotatable_Bonds:                   8
##########                         Heavy_Atoms:                  27
##########                    Molecular_Weight:             374.483
##########                DOCK_Rotatable_Bonds:                   8
##########                       Formal_Charge:           0.0199998
##########                     HBond_Acceptors:                   7
##########                        HBond_Donors:                   0
##########                         Heavy_Atoms:                  27
##########                          Grid_Score:          -34.822182
##########                     Grid_vdw_energy:          -32.994621
##########                      Grid_es_energy:           -1.827559
##########           Internal_energy_repulsive:            8.549707

@<TRIPOS>MOLECULE
ZINC001492779707
 57 59 1 0 0
SMALL
USER_CHARGES


@<TRIPOS>ATOM
      1 C1         -7.6509    0.9991   52.6443 C.3     1  ZINC001492779707   -0.0700
      2 C2         -8.5900   -0.1759   52.5540 C.2     1  ZINC001492779707    0.1800
      3 N3         -8.3465   -1.3162   51.9723 N.2     1  ZINC001492779707   -0.2900
      4 N4         -9.3643   -2.0933   52.0823 N.2     1  ZINC001492779707   -0.3100
      5 C5        -10.3195   -1.4856   52.7457 C.2     1  ZINC001492779707    0.3400
      6 N6        -11.5645   -2.0069   53.0602 N.3     1  ZINC001492779707   -0.4600
      7 C7        -12.4942   -1.8670   51.9315 C.3     1  ZINC001492779707    0.0300
      8 C8        -11.4564   -3.4097   53.4824 C.3     1  ZINC001492779707    0.1100
      9 C9        -12.1587   -3.5924   54.8032 C.ar    1  ZINC001492779707   -0.0400
     10 C10       -13.5392   -3.6509   54.8491 C.ar    1  ZINC001492779707   -0.1300
     11 C11       -14.1867   -3.8184   56.0595 C.ar    1  ZINC001492779707   -0.0800
     12 C12       -13.4552   -3.9276   57.2259 C.ar    1  ZINC001492779707   -0.2100
     13 C13       -12.0695   -3.8692   57.1825 C.ar    1  ZINC001492779707    0.1300
     14 O14       -11.3475   -3.9769   58.3289 O.3     1  ZINC001492779707   -0.3100
     15 C15       -10.6165   -2.8220   58.7461 C.3     1  ZINC001492779707    0.0800
     16 C16       -11.5395   -1.8926   59.5370 C.3     1  ZINC001492779707   -0.1500
     17 C17        -9.4453   -3.2520   59.6315 C.3     1  ZINC001492779707   -0.1800
     18 C18       -11.4222   -3.7068   55.9666 C.ar    1  ZINC001492779707   -0.1400
     19 N19        -9.8534   -0.2455   53.0725 N.pl3   1  ZINC001492779707   -0.4600
     20 C20       -10.5628    0.7985   53.8162 C.3     1  ZINC001492779707    0.1200
     21 C21       -10.1990    0.7050   55.2993 C.3     1  ZINC001492779707   -0.1200
     22 C22       -10.9662    1.7734   56.0809 C.3     1  ZINC001492779707    0.0600
     23 H23       -12.0376    1.6178   55.9550 H       1  ZINC001492779707    0.0800
     24 C24       -10.6062    1.6782   57.5663 C.3     1  ZINC001492779707    0.0300
     25 O25       -11.2398    2.7491   58.2725 O.3     1  ZINC001492779707   -0.3800
     26 C26       -10.8831    4.0462   57.7854 C.3     1  ZINC001492779707    0.0200
     27 C27       -11.2432    4.1415   56.3000 C.3     1  ZINC001492779707    0.0300
     28 O28       -10.6107    3.0705   55.5928 O.3     1  ZINC001492779707   -0.3800
     29 H29        -7.0433    0.9104   53.5449 H       1  ZINC001492779707    0.0900
     30 H30        -7.0023    1.0141   51.7684 H       1  ZINC001492779707    0.1000
     31 H31        -8.2279    1.9230   52.6849 H       1  ZINC001492779707    0.0800
     32 H32       -12.1564   -2.4897   51.1031 H       1  ZINC001492779707    0.0500
     33 H33       -13.4908   -2.1825   52.2403 H       1  ZINC001492779707    0.0900
     34 H34       -12.5253   -0.8249   51.6134 H       1  ZINC001492779707    0.0700
     35 H35       -11.9194   -4.0515   52.7328 H       1  ZINC001492779707    0.0700
     36 H36       -10.4051   -3.6769   53.5899 H       1  ZINC001492779707    0.0900
     37 H37       -14.1129   -3.5653   53.9380 H       1  ZINC001492779707    0.1200
     38 H38       -15.2652   -3.8635   56.0926 H       1  ZINC001492779707    0.1300
     39 H39       -13.9613   -4.0581   58.1711 H       1  ZINC001492779707    0.1300
     40 H40       -10.2361   -2.2967   57.8701 H       1  ZINC001492779707    0.0700
     41 H41       -11.9200   -2.4179   60.4131 H       1  ZINC001492779707    0.0700
     42 H42       -10.9820   -1.0117   59.8552 H       1  ZINC001492779707    0.0800
     43 H43       -12.3740   -1.5863   58.9062 H       1  ZINC001492779707    0.0700
     44 H44        -8.7878   -3.9141   59.0681 H       1  ZINC001492779707    0.0600
     45 H45        -8.8878   -2.3709   59.9497 H       1  ZINC001492779707    0.0700
     46 H46        -9.8257   -3.7772   60.5076 H       1  ZINC001492779707    0.0700
     47 H47       -10.3438   -3.6610   55.9302 H       1  ZINC001492779707    0.1300
     48 H48       -10.2751    1.7773   53.4323 H       1  ZINC001492779707    0.1000
     49 H49       -11.6377    0.6630   53.6965 H       1  ZINC001492779707    0.1000
     50 H50       -10.4646   -0.2824   55.6771 H       1  ZINC001492779707    0.0900
     51 H51        -9.1277    0.8646   55.4213 H       1  ZINC001492779707    0.0800
     52 H52       -10.9521    0.7242   57.9645 H       1  ZINC001492779707    0.1100
     53 H53        -9.5252    1.7529   57.6847 H       1  ZINC001492779707    0.0600
     54 H54       -11.4298    4.8074   58.3423 H       1  ZINC001492779707    0.1100
     55 H55        -9.8116    4.2007   57.9111 H       1  ZINC001492779707    0.0600
     56 H56       -12.3242    4.0667   56.1815 H       1  ZINC001492779707    0.0600
     57 H57       -10.8973    5.0954   55.9017 H       1  ZINC001492779707    0.1100
@<TRIPOS>BOND
     1     1     2    1
     2     1    29    1
     3     1    30    1
     4     1    31    1
     5     2    19    1
     6     2     3    2
     7     3     4    1
     8     4     5    2
     9     5     6    1
    10     5    19    1
    11     6     7    1
    12     6     8    1
    13     7    32    1
    14     7    33    1
    15     7    34    1
    16     8     9    1
    17     8    35    1
    18     8    36    1
    19     9    18   ar
    20     9    10   ar
    21    10    11   ar
    22    10    37    1
    23    11    12   ar
    24    11    38    1
    25    12    13   ar
    26    12    39    1
    27    13    14    1
    28    13    18   ar
    29    14    15    1
    30    15    16    1
    31    15    17    1
    32    15    40    1
    33    16    41    1
    34    16    42    1
    35    16    43    1
    36    17    44    1
    37    17    45    1
    38    17    46    1
    39    18    47    1
    40    19    20    1
    41    20    21    1
    42    20    48    1
    43    20    49    1
    44    21    22    1
    45    21    50    1
    46    21    51    1
    47    22    23    1
    48    22    28    1
    49    22    24    1
    50    24    25    1
    51    24    52    1
    52    24    53    1
    53    25    26    1
    54    26    27    1
    55    26    54    1
    56    26    55    1
    57    27    28    1
    58    27    56    1
    59    27    57    1
@<TRIPOS>SUBSTRUCTURE
     1 ZINC001492779707        1 TEMP              0 ****  ****    0 ROOT


##########                                Name:    ZINC000151991096
##########                DOCK_Rotatable_Bonds:                   8
##########                         Heavy_Atoms:                  27
##########                    Molecular_Weight:             364.444
##########                DOCK_Rotatable_Bonds:                   8
##########                       Formal_Charge:          -0.0200004
##########                     HBond_Acceptors:                   5
##########                        HBond_Donors:                   1
##########                         Heavy_Atoms:                  27
##########                          Grid_Score:          -34.821045
##########                     Grid_vdw_energy:          -34.789078
##########                      Grid_es_energy:           -0.031969
##########           Internal_energy_repulsive:           19.031939

@<TRIPOS>MOLECULE
ZINC000151991096
 51 53 1 0 0
SMALL
USER_CHARGES


@<TRIPOS>ATOM
      1 C1         -4.6976    1.7207   49.9268 C.3     1  ZINC000151991096   -0.1500
      2 C2         -6.0956    1.2730   50.3585 C.3     1  ZINC000151991096   -0.1300
      3 C3         -6.3940    1.8123   51.7589 C.3     1  ZINC000151991096    0.1400
      4 H4         -5.6434    1.4433   52.4580 H       1  ZINC000151991096    0.1000
      5 N5         -7.7211    1.3603   52.1837 N.am    1  ZINC000151991096   -0.7200
      6 C6         -7.9370    0.0560   52.4454 C.2     1  ZINC000151991096    0.5600
      7 O7         -7.0307   -0.7458   52.3274 O.2     1  ZINC000151991096   -0.5300
      8 C8         -9.2738   -0.3991   52.8752 C.ar    1  ZINC000151991096   -0.1700
      9 C9         -9.7246   -1.6752   52.5277 C.ar    1  ZINC000151991096   -0.0500
     10 C10       -10.9721   -2.0962   52.9310 C.ar    1  ZINC000151991096   -0.1600
     11 C11       -11.7827   -1.2535   53.6826 C.ar    1  ZINC000151991096    0.1600
     12 O12       -13.0114   -1.6722   54.0785 O.3     1  ZINC000151991096   -0.3000
     13 C13       -13.3181   -1.5597   55.4697 C.3     1  ZINC000151991096    0.0900
     14 C14       -12.4888   -2.5480   56.2484 C.ar    1  ZINC000151991096   -0.0500
     15 C15       -11.3601   -2.1262   56.9195 C.ar    1  ZINC000151991096   -0.1000
     16 C16       -10.5974   -3.0325   57.6350 C.ar    1  ZINC000151991096   -0.0900
     17 C17       -10.9604   -4.3666   57.6823 C.ar    1  ZINC000151991096   -0.1200
     18 C18       -12.0869   -4.8022   57.0155 C.ar    1  ZINC000151991096   -0.0700
     19 C19       -12.8644   -3.8922   56.2968 C.ar    1  ZINC000151991096   -0.0200
     20 C20       -14.0352   -4.3373   55.6025 C.1     1  ZINC000151991096    0.2400
     21 N21       -14.9638   -4.6905   55.0517 N.1     1  ZINC000151991096   -0.4000
     22 C22       -11.3379    0.0166   54.0302 C.ar    1  ZINC000151991096   -0.2200
     23 C23       -10.0895    0.4430   53.6354 C.ar    1  ZINC000151991096   -0.0100
     24 C24        -6.3597    3.3417   51.7343 C.3     1  ZINC000151991096    0.0700
     25 H25        -5.3696    3.6845   51.4340 H       1  ZINC000151991096    0.1000
     26 C26        -6.7035    3.8958   53.1336 C.3     1  ZINC000151991096   -0.1500
     27 C27        -7.5827    5.1298   52.7926 C.3     1  ZINC000151991096   -0.1600
     28 C28        -8.3150    4.6274   51.5230 C.3     1  ZINC000151991096    0.0500
     29 O29        -7.3435    3.8351   50.8176 O.3     1  ZINC000151991096   -0.3700
     30 H30        -3.9593    1.3348   50.6297 H       1  ZINC000151991096    0.0500
     31 H31        -4.4851    1.3365   48.9292 H       1  ZINC000151991096    0.0500
     32 H32        -4.6527    2.8097   49.9139 H       1  ZINC000151991096    0.0600
     33 H33        -6.8339    1.6589   49.6557 H       1  ZINC000151991096    0.0700
     34 H34        -6.1405    0.1840   50.3714 H       1  ZINC000151991096    0.0700
     35 H35        -8.4446    1.9999   52.2767 H       1  ZINC000151991096    0.4000
     36 H36        -9.0956   -2.3304   51.9434 H       1  ZINC000151991096    0.1300
     37 H37       -11.3215   -3.0822   52.6625 H       1  ZINC000151991096    0.1400
     38 H38       -13.0939   -0.5490   55.8106 H       1  ZINC000151991096    0.0800
     39 H39       -14.3761   -1.7698   55.6266 H       1  ZINC000151991096    0.0800
     40 H40       -11.0707   -1.0862   56.8862 H       1  ZINC000151991096    0.1400
     41 H41        -9.7146   -2.6967   58.1587 H       1  ZINC000151991096    0.1400
     42 H42       -10.3602   -5.0687   58.2419 H       1  ZINC000151991096    0.1400
     43 H43       -12.3690   -5.8441   57.0529 H       1  ZINC000151991096    0.1400
     44 H44       -11.9708    0.6686   54.6141 H       1  ZINC000151991096    0.1300
     45 H45        -9.7445    1.4300   53.9062 H       1  ZINC000151991096    0.1400
     46 H46        -7.2684    3.1649   53.7122 H       1  ZINC000151991096    0.0800
     47 H47        -5.8003    4.1977   53.6640 H       1  ZINC000151991096    0.0900
     48 H48        -8.2890    5.3427   53.5951 H       1  ZINC000151991096    0.0800
     49 H49        -6.9672    6.0019   52.5718 H       1  ZINC000151991096    0.0800
     50 H50        -9.1743    4.0161   51.7988 H       1  ZINC000151991096    0.0600
     51 H51        -8.6311    5.4711   50.9096 H       1  ZINC000151991096    0.0900
@<TRIPOS>BOND
     1     1     2    1
     2     1    30    1
     3     1    31    1
     4     1    32    1
     5     2     3    1
     6     2    33    1
     7     2    34    1
     8     3     4    1
     9     3     5    1
    10     3    24    1
    11     5     6   am
    12     5    35    1
    13     6     7    2
    14     6     8    1
    15     8    23   ar
    16     8     9   ar
    17     9    10   ar
    18     9    36    1
    19    10    11   ar
    20    10    37    1
    21    11    12    1
    22    11    22   ar
    23    12    13    1
    24    13    14    1
    25    13    38    1
    26    13    39    1
    27    14    19   ar
    28    14    15   ar
    29    15    16   ar
    30    15    40    1
    31    16    17   ar
    32    16    41    1
    33    17    18   ar
    34    17    42    1
    35    18    19   ar
    36    18    43    1
    37    19    20    1
    38    20    21    3
    39    22    23   ar
    40    22    44    1
    41    23    45    1
    42    24    25    1
    43    24    29    1
    44    24    26    1
    45    26    27    1
    46    26    46    1
    47    26    47    1
    48    27    28    1
    49    27    48    1
    50    27    49    1
    51    28    29    1
    52    28    50    1
    53    28    51    1
@<TRIPOS>SUBSTRUCTURE
     1 ZINC000151991096        1 TEMP              0 ****  ****    0 ROOT


##########                                Name:    ZINC000590699876
##########                DOCK_Rotatable_Bonds:                   9
##########                         Heavy_Atoms:                  30
##########                    Molecular_Weight:              421.54
##########                DOCK_Rotatable_Bonds:                   9
##########                       Formal_Charge:          -0.0300004
##########                     HBond_Acceptors:                   9
##########                        HBond_Donors:                   1
##########                         Heavy_Atoms:                  30
##########                          Grid_Score:          -34.808365
##########                     Grid_vdw_energy:          -34.856735
##########                      Grid_es_energy:            0.048370
##########           Internal_energy_repulsive:          107.013824

@<TRIPOS>MOLECULE
ZINC000590699876
 65 67 1 0 0
SMALL
USER_CHARGES


@<TRIPOS>ATOM
      1 C1         -8.3313   -1.4726   51.8167 C.3     1  ZINC000590699876   -0.1700
      2 C2         -9.7701   -1.6565   52.2254 C.2     1  ZINC000590699876    0.5100
      3 O3        -10.5187   -0.7028   52.2550 O.2     1  ZINC000590699876   -0.5500
      4 N4        -10.2250   -2.8808   52.5578 N.am    1  ZINC000590699876   -0.7200
      5 C5        -11.6233   -3.0593   52.9569 C.3     1  ZINC000590699876    0.1100
      6 C6        -11.7942   -2.6346   54.3926 C.2     1  ZINC000590699876    0.5300
      7 O7        -11.2037   -1.6615   54.8114 O.2     1  ZINC000590699876   -0.5200
      8 N8        -12.6030   -3.3361   55.2112 N.am    1  ZINC000590699876   -0.6000
      9 C9        -13.3769   -4.5333   54.8352 C.3     1  ZINC000590699876    0.1000
     10 C10       -13.6076   -5.2907   56.1667 C.3     1  ZINC000590699876   -0.1300
     11 C11       -13.8214   -4.1175   57.1593 C.3     1  ZINC000590699876   -0.1300
     12 C12       -12.8548   -3.0379   56.6286 C.3     1  ZINC000590699876    0.1200
     13 H13       -13.3132   -2.0531   56.7193 H       1  ZINC000590699876    0.1000
     14 C14       -11.5655   -3.0766   57.4078 C.2     1  ZINC000590699876    0.5100
     15 O15       -10.6051   -3.6680   56.9620 O.2     1  ZINC000590699876   -0.5200
     16 N16       -11.4797   -2.4540   58.6000 N.am    1  ZINC000590699876   -0.6100
     17 C17       -10.2285   -2.4728   59.3731 C.3     1  ZINC000590699876    0.1000
     18 C18        -9.8751   -1.0333   59.7621 C.3     1  ZINC000590699876    0.0400
     19 N19       -11.0200   -0.4196   60.4481 N.3     1  ZINC000590699876   -0.5200
     20 C20       -10.6645    0.8992   60.9889 C.3     1  ZINC000590699876    0.0400
     21 C21       -10.1473    0.7424   62.3956 C.2     1  ZINC000590699876    0.5200
     22 O22        -9.9208   -0.3636   62.8387 O.2     1  ZINC000590699876   -0.5100
     23 N23        -9.9365    1.8313   63.1613 N.am    1  ZINC000590699876   -0.6100
     24 C24       -10.2062    3.1777   62.6387 C.3     1  ZINC000590699876    0.1100
     25 C25        -8.9505    4.0367   62.8175 C.3     1  ZINC000590699876   -0.1400
     26 C26        -8.5219    4.0069   64.2864 C.3     1  ZINC000590699876   -0.1200
     27 C27        -8.1862    2.5701   64.6926 C.3     1  ZINC000590699876   -0.1300
     28 C28        -9.4385    1.6941   64.5369 C.3     1  ZINC000590699876    0.1400
     29 H29       -10.2028    2.0206   65.2421 H       1  ZINC000590699876    0.0700
     30 C30        -9.0792    0.2322   64.8102 C.3     1  ZINC000590699876   -0.1400
     31 C31       -12.1863   -0.3273   59.5598 C.3     1  ZINC000590699876    0.0400
     32 C32       -12.6328   -1.7326   59.1597 C.3     1  ZINC000590699876    0.1200
     33 H33        -8.1503   -0.4228   51.5863 H       1  ZINC000590699876    0.1000
     34 H34        -7.6791   -1.7832   52.6329 H       1  ZINC000590699876    0.0900
     35 H35        -8.1236   -2.0791   50.9350 H       1  ZINC000590699876    0.0900
     36 H36        -9.6266   -3.6438   52.5329 H       1  ZINC000590699876    0.4100
     37 H37       -12.2638   -2.4501   52.3190 H       1  ZINC000590699876    0.1000
     38 H38       -11.8996   -4.1086   52.8530 H       1  ZINC000590699876    0.1000
     39 H39       -14.3304   -4.2450   54.3926 H       1  ZINC000590699876    0.0800
     40 H40       -12.8068   -5.1509   54.1413 H       1  ZINC000590699876    0.0800
     41 H41       -14.4953   -5.9205   56.1092 H       1  ZINC000590699876    0.0900
     42 H42       -12.7307   -5.8780   56.4391 H       1  ZINC000590699876    0.0800
     43 H43       -14.8530   -3.7670   57.1257 H       1  ZINC000590699876    0.1000
     44 H44       -13.5465   -4.4138   58.1716 H       1  ZINC000590699876    0.0900
     45 H45       -10.3632   -3.0727   60.2731 H       1  ZINC000590699876    0.0800
     46 H46        -9.4286   -2.8947   58.7648 H       1  ZINC000590699876    0.0900
     47 H47        -9.0120   -1.0379   60.4277 H       1  ZINC000590699876    0.0900
     48 H48        -9.6396   -0.4614   58.8645 H       1  ZINC000590699876    0.0400
     49 H49        -9.8924    1.3511   60.3662 H       1  ZINC000590699876    0.1000
     50 H50       -11.5468    1.5391   60.9953 H       1  ZINC000590699876    0.0600
     51 H51       -10.4582    3.1149   61.5801 H       1  ZINC000590699876    0.0800
     52 H52       -11.0353    3.6236   63.1879 H       1  ZINC000590699876    0.0700
     53 H53        -8.1472    3.6407   62.1961 H       1  ZINC000590699876    0.0700
     54 H54        -9.1670    5.0634   62.5225 H       1  ZINC000590699876    0.0800
     55 H55        -7.6429    4.6372   64.4211 H       1  ZINC000590699876    0.0700
     56 H56        -9.3348    4.3799   64.9094 H       1  ZINC000590699876    0.0600
     57 H57        -7.3901    2.1879   64.0535 H       1  ZINC000590699876    0.0700
     58 H58        -7.8587    2.5531   65.7321 H       1  ZINC000590699876    0.0700
     59 H59        -8.6377    0.1462   65.8031 H       1  ZINC000590699876    0.0400
     60 H60        -9.9801   -0.3791   64.7589 H       1  ZINC000590699876    0.0700
     61 H61        -8.3637   -0.1118   64.0634 H       1  ZINC000590699876    0.0700
     62 H62       -12.9996    0.1801   60.0789 H       1  ZINC000590699876    0.1100
     63 H63       -11.9187    0.2348   58.6651 H       1  ZINC000590699876    0.0300
     64 H64       -13.4234   -1.6668   58.4124 H       1  ZINC000590699876    0.0900
     65 H65       -12.9987   -2.2645   60.0380 H       1  ZINC000590699876    0.0800
@<TRIPOS>BOND
     1     1     2    1
     2     1    33    1
     3     1    34    1
     4     1    35    1
     5     2     3    2
     6     2     4   am
     7     4     5    1
     8     4    36    1
     9     5     6    1
    10     5    37    1
    11     5    38    1
    12     6     7    2
    13     6     8   am
    14     8    12    1
    15     8     9    1
    16     9    10    1
    17     9    39    1
    18     9    40    1
    19    10    11    1
    20    10    41    1
    21    10    42    1
    22    11    12    1
    23    11    43    1
    24    11    44    1
    25    12    13    1
    26    12    14    1
    27    14    15    2
    28    14    16   am
    29    16    32    1
    30    16    17    1
    31    17    18    1
    32    17    45    1
    33    17    46    1
    34    18    19    1
    35    18    47    1
    36    18    48    1
    37    19    20    1
    38    19    31    1
    39    20    21    1
    40    20    49    1
    41    20    50    1
    42    21    22    2
    43    21    23   am
    44    23    28    1
    45    23    24    1
    46    24    25    1
    47    24    51    1
    48    24    52    1
    49    25    26    1
    50    25    53    1
    51    25    54    1
    52    26    27    1
    53    26    55    1
    54    26    56    1
    55    27    28    1
    56    27    57    1
    57    27    58    1
    58    28    29    1
    59    28    30    1
    60    30    59    1
    61    30    60    1
    62    30    61    1
    63    31    32    1
    64    31    62    1
    65    31    63    1
    66    32    64    1
    67    32    65    1
@<TRIPOS>SUBSTRUCTURE
     1 ZINC000590699876        1 TEMP              0 ****  ****    0 ROOT


##########                                Name:    ZINC000655235556
##########                DOCK_Rotatable_Bonds:                   6
##########                         Heavy_Atoms:                  23
##########                    Molecular_Weight:             336.778
##########                DOCK_Rotatable_Bonds:                   6
##########                       Formal_Charge:         -0.00999996
##########                     HBond_Acceptors:                   8
##########                        HBond_Donors:                   2
##########                         Heavy_Atoms:                  23
##########                          Grid_Score:          -34.762047
##########                     Grid_vdw_energy:          -32.321213
##########                      Grid_es_energy:           -2.440833
##########           Internal_energy_repulsive:            6.507784

@<TRIPOS>MOLECULE
ZINC000655235556
 40 42 1 0 0
SMALL
USER_CHARGES


@<TRIPOS>ATOM
      1 C1         -3.4409    1.2812   50.1234 C.3     1  ZINC000655235556    0.0200
      2 O2         -4.6358    2.0648   50.1013 O.3     1  ZINC000655235556   -0.2700
      3 C3         -5.0039    2.6592   51.2637 C.ar    1  ZINC000655235556    0.2000
      4 C4         -4.3486    3.7999   51.7002 C.ar    1  ZINC000655235556   -0.2100
      5 C5         -4.7254    4.4048   52.8849 C.ar    1  ZINC000655235556    0.0300
      6 Cl6        -3.9000    5.8332   53.4254 Cl      1  ZINC000655235556   -0.0500
      7 C7         -5.7592    3.8771   53.6435 C.ar    1  ZINC000655235556   -0.1600
      8 C8         -6.4207    2.7439   53.2236 C.ar    1  ZINC000655235556   -0.0300
      9 C9         -6.0530    2.1258   52.0259 C.ar    1  ZINC000655235556   -0.1700
     10 C10        -6.7576    0.9127   51.5709 C.2     1  ZINC000655235556    0.5700
     11 O11        -7.1201    0.8180   50.4140 O.2     1  ZINC000655235556   -0.5100
     12 N12        -6.9999   -0.0908   52.4372 N.am    1  ZINC000655235556   -0.7300
     13 C13        -7.6983   -1.2966   51.9848 C.3     1  ZINC000655235556    0.2100
     14 C14        -9.1701   -1.1654   52.2807 C.2     1  ZINC000655235556    0.2600
     15 N15       -10.0362   -2.1453   52.3197 N.2     1  ZINC000655235556   -0.5100
     16 C16       -11.2459   -1.6680   52.6100 C.2     1  ZINC000655235556    0.2200
     17 C17       -12.5023   -2.4893   52.7441 C.3     1  ZINC000655235556    0.1700
     18 H18       -13.0182   -2.5349   51.7851 H       1  ZINC000655235556    0.1100
     19 C19       -13.4281   -1.8603   53.8074 C.3     1  ZINC000655235556   -0.1400
     20 C20       -13.9955   -3.1113   54.5320 C.3     1  ZINC000655235556   -0.1500
     21 C21       -12.7793   -4.0689   54.4613 C.3     1  ZINC000655235556    0.0500
     22 O22       -12.1732   -3.8126   53.1824 O.3     1  ZINC000655235556   -0.3700
     23 N23       -11.1658   -0.3720   52.7604 N.2     1  ZINC000655235556   -0.2800
     24 N24        -9.8211   -0.0220   52.5562 N.pl3   1  ZINC000655235556   -0.4700
     25 H25        -2.5987    1.9109   50.4099 H       1  ZINC000655235556    0.0600
     26 H26        -3.5509    0.4712   50.8446 H       1  ZINC000655235556    0.0600
     27 H27        -3.2619    0.8636   49.1325 H       1  ZINC000655235556    0.1100
     28 H28        -3.5425    4.2164   51.1144 H       1  ZINC000655235556    0.1500
     29 H29        -6.0467    4.3562   54.5676 H       1  ZINC000655235556    0.1400
     30 H30        -7.2251    2.3361   53.8177 H       1  ZINC000655235556    0.1400
     31 H31        -6.7118   -0.0148   53.3604 H       1  ZINC000655235556    0.4000
     32 H32        -7.5530   -1.4195   50.9116 H       1  ZINC000655235556    0.1000
     33 H33        -7.2987   -2.1656   52.5074 H       1  ZINC000655235556    0.1100
     34 H34       -12.8591   -1.2370   54.4974 H       1  ZINC000655235556    0.0800
     35 H35       -14.2278   -1.2889   53.3363 H       1  ZINC000655235556    0.0900
     36 H36       -14.2556   -2.8823   55.5655 H       1  ZINC000655235556    0.0900
     37 H37       -14.8506   -3.5220   53.9953 H       1  ZINC000655235556    0.0800
     38 H38       -12.0767   -3.8480   55.2648 H       1  ZINC000655235556    0.0600
     39 H39       -13.1103   -5.1056   54.5213 H       1  ZINC000655235556    0.0900
     40 H40        -9.4392    0.8686   52.5990 H       1  ZINC000655235556    0.4400
@<TRIPOS>BOND
     1     1     2    1
     2     1    25    1
     3     1    26    1
     4     1    27    1
     5     2     3    1
     6     3     9   ar
     7     3     4   ar
     8     4     5   ar
     9     4    28    1
    10     5     6    1
    11     5     7   ar
    12     7     8   ar
    13     7    29    1
    14     8     9   ar
    15     8    30    1
    16     9    10    1
    17    10    11    2
    18    10    12   am
    19    12    13    1
    20    12    31    1
    21    13    14    1
    22    13    32    1
    23    13    33    1
    24    14    24    1
    25    14    15    2
    26    15    16    1
    27    16    17    1
    28    16    23    2
    29    17    18    1
    30    17    22    1
    31    17    19    1
    32    19    20    1
    33    19    34    1
    34    19    35    1
    35    20    21    1
    36    20    36    1
    37    20    37    1
    38    21    22    1
    39    21    38    1
    40    21    39    1
    41    23    24    1
    42    24    40    1
@<TRIPOS>SUBSTRUCTURE
     1 ZINC000655235556        1 TEMP              0 ****  ****    0 ROOT


##########                                Name:    ZINC001085817863
##########                DOCK_Rotatable_Bonds:                   7
##########                         Heavy_Atoms:                  24
##########                    Molecular_Weight:             326.442
##########                DOCK_Rotatable_Bonds:                   7
##########                       Formal_Charge:           0.0299998
##########                     HBond_Acceptors:                   5
##########                        HBond_Donors:                   0
##########                         Heavy_Atoms:                  24
##########                          Grid_Score:          -34.705753
##########                     Grid_vdw_energy:          -33.742393
##########                      Grid_es_energy:           -0.963361
##########           Internal_energy_repulsive:           14.986090

@<TRIPOS>MOLECULE
ZINC001085817863
 50 52 1 0 0
SMALL
USER_CHARGES


@<TRIPOS>ATOM
      1 C1        -12.9179   -1.8269   60.5390 C.3     1  ZINC001085817863   -0.1400
      2 C2        -12.0674   -1.5061   59.3083 C.3     1  ZINC001085817863   -0.0700
      3 C3        -11.2422   -2.7120   58.9396 C.2     1  ZINC001085817863    0.1100
      4 C4        -11.5849   -3.6654   58.0207 C.2     1  ZINC001085817863   -0.2400
      5 C5        -12.8136   -3.7124   57.2104 C.2     1  ZINC001085817863    0.6000
      6 O6        -13.8589   -4.0806   57.7115 O.2     1  ZINC001085817863   -0.5300
      7 N7        -12.7799   -3.3473   55.9134 N.am    1  ZINC001085817863   -0.6100
      8 C8        -14.0022   -3.3941   55.1073 C.3     1  ZINC001085817863    0.0800
      9 C9        -11.5209   -2.9037   55.3098 C.3     1  ZINC001085817863    0.1300
     10 C10       -11.7227   -1.5349   54.6570 C.3     1  ZINC001085817863    0.0100
     11 H11       -12.4702   -1.5524   53.8637 H       1  ZINC001085817863    0.0800
     12 C12       -11.9314   -0.3994   55.6688 C.3     1  ZINC001085817863   -0.1400
     13 C13       -11.0564    0.3992   54.6925 C.3     1  ZINC001085817863    0.0000
     14 N14       -10.4614   -0.8809   54.2613 N.3     1  ZINC001085817863   -0.4400
     15 C15       -10.2839   -0.9144   52.8035 C.3     1  ZINC001085817863    0.0700
     16 C16        -8.9033   -0.4217   52.4541 C.ar    1  ZINC001085817863   -0.1300
     17 C17        -8.5247    0.8777   52.7546 C.ar    1  ZINC001085817863   -0.0700
     18 C18        -7.2442    1.2873   52.4149 C.ar    1  ZINC001085817863   -0.1700
     19 C19        -6.3940    0.3932   51.7928 C.ar    1  ZINC001085817863    0.1000
     20 N20        -6.7882   -0.8359   51.5220 N.ar    1  ZINC001085817863   -0.4800
     21 C21        -7.9964   -1.2614   51.8351 C.ar    1  ZINC001085817863    0.1200
     22 C22       -10.4809   -4.6311   58.0050 C.2     1  ZINC001085817863   -0.1900
     23 C23        -9.5790   -4.1891   58.8994 C.2     1  ZINC001085817863   -0.0200
     24 N24       -10.0396   -3.0310   59.4546 N.pl3   1  ZINC001085817863   -0.4400
     25 C25        -9.3317   -2.2514   60.4731 C.3     1  ZINC001085817863    0.0600
     26 H26       -13.5146   -0.9547   60.8059 H       1  ZINC001085817863    0.0600
     27 H27       -13.5784   -2.6647   60.3159 H       1  ZINC001085817863    0.0500
     28 H28       -12.2663   -2.0901   61.3724 H       1  ZINC001085817863    0.0600
     29 H29       -12.7189   -1.2431   58.4751 H       1  ZINC001085817863    0.0600
     30 H30       -11.4068   -0.6683   59.5316 H       1  ZINC001085817863    0.1100
     31 H31       -14.7611   -2.7566   55.5607 H       1  ZINC001085817863    0.0700
     32 H32       -13.7862   -3.0412   54.0989 H       1  ZINC001085817863    0.0700
     33 H33       -14.3689   -4.4197   55.0625 H       1  ZINC001085817863    0.0600
     34 H34       -10.7546   -2.8289   56.0814 H       1  ZINC001085817863    0.0800
     35 H35       -11.2065   -3.6238   54.5543 H       1  ZINC001085817863    0.1000
     36 H36       -12.9602   -0.0462   55.7374 H       1  ZINC001085817863    0.0800
     37 H37       -11.4691   -0.5766   56.6399 H       1  ZINC001085817863    0.1000
     38 H38       -11.6253    0.8984   53.9081 H       1  ZINC001085817863    0.0700
     39 H39       -10.3479    1.0631   55.1877 H       1  ZINC001085817863    0.0800
     40 H40       -10.4061   -1.9368   52.4460 H       1  ZINC001085817863    0.0900
     41 H41       -11.0286   -0.2732   52.3320 H       1  ZINC001085817863    0.0500
     42 H42        -9.2110    1.5548   53.2412 H       1  ZINC001085817863    0.1300
     43 H43        -6.9156    2.2926   52.6337 H       1  ZINC001085817863    0.1300
     44 H44        -5.3952    0.7046   51.5247 H       1  ZINC001085817863    0.1600
     45 H45        -8.2835   -2.2750   51.5975 H       1  ZINC001085817863    0.1500
     46 H46       -10.4072   -5.5202   57.3964 H       1  ZINC001085817863    0.1600
     47 H47        -8.6415   -4.6701   59.1364 H       1  ZINC001085817863    0.1600
     48 H48        -8.6880   -1.5182   59.9870 H       1  ZINC001085817863    0.0800
     49 H49       -10.0556   -1.7370   61.1051 H       1  ZINC001085817863    0.0900
     50 H50        -8.7248   -2.9189   61.0848 H       1  ZINC001085817863    0.0900
@<TRIPOS>BOND
     1     1     2    1
     2     1    26    1
     3     1    27    1
     4     1    28    1
     5     2     3    1
     6     2    29    1
     7     2    30    1
     8     3    24    1
     9     3     4    2
    10     4     5    1
    11     4    22    1
    12     5     6    2
    13     5     7   am
    14     7     8    1
    15     7     9    1
    16     8    31    1
    17     8    32    1
    18     8    33    1
    19     9    10    1
    20     9    34    1
    21     9    35    1
    22    10    11    1
    23    10    14    1
    24    10    12    1
    25    12    13    1
    26    12    36    1
    27    12    37    1
    28    13    14    1
    29    13    38    1
    30    13    39    1
    31    14    15    1
    32    15    16    1
    33    15    40    1
    34    15    41    1
    35    16    21   ar
    36    16    17   ar
    37    17    18   ar
    38    17    42    1
    39    18    19   ar
    40    18    43    1
    41    19    20   ar
    42    19    44    1
    43    20    21   ar
    44    21    45    1
    45    22    23    2
    46    22    46    1
    47    23    24    1
    48    23    47    1
    49    24    25    1
    50    25    48    1
    51    25    49    1
    52    25    50    1
@<TRIPOS>SUBSTRUCTURE
     1 ZINC001085817863        1 TEMP              0 ****  ****    0 ROOT


##########                                Name:    ZINC001371344729
##########                DOCK_Rotatable_Bonds:                   9
##########                         Heavy_Atoms:                  24
##########                    Molecular_Weight:             332.399
##########                DOCK_Rotatable_Bonds:                   9
##########                       Formal_Charge:          0.00999983
##########                     HBond_Acceptors:                   6
##########                        HBond_Donors:                   1
##########                         Heavy_Atoms:                  24
##########                          Grid_Score:          -34.692738
##########                     Grid_vdw_energy:          -35.105892
##########                      Grid_es_energy:            0.413155
##########           Internal_energy_repulsive:           26.600260

@<TRIPOS>MOLECULE
ZINC001371344729
 48 49 1 0 0
SMALL
USER_CHARGES


@<TRIPOS>ATOM
      1 C1        -12.9038   -1.9249   54.0140 C.3     1  ZINC001371344729   -0.1800
      2 C2        -11.3912   -2.0971   53.8624 C.3     1  ZINC001371344729    0.1000
      3 N3        -10.7049   -0.9719   54.5021 N.am    1  ZINC001371344729   -0.6100
      4 C4        -10.6314   -0.9035   55.8462 C.2     1  ZINC001371344729    0.5100
      5 O5        -10.0620    0.0272   56.3758 O.2     1  ZINC001371344729   -0.5200
      6 C6        -11.2567   -1.9836   56.6910 C.3     1  ZINC001371344729   -0.0600
      7 C7        -10.3665   -2.2770   57.8710 C.2     1  ZINC001371344729   -0.0100
      8 C8        -10.1078   -3.4960   58.3774 C.2     1  ZINC001371344729   -0.1600
      9 C9        -10.6480   -4.8102   57.8753 C.3     1  ZINC001371344729   -0.0800
     10 C10        -9.2367   -3.3072   59.4749 C.2     1  ZINC001371344729   -0.2100
     11 C11        -9.0076   -1.9850   59.5676 C.2     1  ZINC001371344729   -0.0300
     12 O12        -9.6974   -1.3656   58.5959 O.3     1  ZINC001371344729   -0.1700
     13 C13       -10.0986    0.0789   53.6810 C.3     1  ZINC001371344729    0.1200
     14 H14        -9.3998    0.6556   54.2868 H       1  ZINC001371344729    0.1100
     15 C15       -11.1937    1.0038   53.1461 C.3     1  ZINC001371344729   -0.1600
     16 C16        -9.3511   -0.5582   52.5078 C.3     1  ZINC001371344729    0.1100
     17 N17        -8.2364    0.3060   52.1118 N.am    1  ZINC001371344729   -0.7200
     18 C18        -7.1501   -0.2254   51.5168 C.2     1  ZINC001371344729    0.5900
     19 O19        -7.0958   -1.4221   51.3075 O.2     1  ZINC001371344729   -0.5300
     20 C20        -6.0280    0.6438   51.1200 C.2     1  ZINC001371344729   -0.2300
     21 C21        -4.9995    0.3309   50.2803 C.2     1  ZINC001371344729    0.0200
     22 O22        -4.1961    1.3946   50.1827 O.3     1  ZINC001371344729   -0.1700
     23 C23        -4.6493    2.4079   50.9372 C.2     1  ZINC001371344729   -0.0100
     24 C24        -3.9932    3.7578   51.0726 C.3     1  ZINC001371344729   -0.0800
     25 C25        -5.7798    2.0272   51.5516 C.2     1  ZINC001371344729   -0.1600
     26 H26       -13.2128   -0.9935   53.5394 H       1  ZINC001371344729    0.0700
     27 H27       -13.4144   -2.7620   53.5380 H       1  ZINC001371344729    0.0700
     28 H28       -13.1620   -1.8961   55.0726 H       1  ZINC001371344729    0.0600
     29 H29       -11.1330   -2.1257   52.8038 H       1  ZINC001371344729    0.0900
     30 H30       -11.0822   -3.0285   54.3371 H       1  ZINC001371344729    0.0800
     31 H31       -11.3782   -2.8873   56.0939 H       1  ZINC001371344729    0.1100
     32 H32       -12.2315   -1.6487   57.0457 H       1  ZINC001371344729    0.1200
     33 H33        -9.9717   -5.2177   57.1239 H       1  ZINC001371344729    0.0700
     34 H34       -10.7316   -5.5101   58.7067 H       1  ZINC001371344729    0.0700
     35 H35       -11.6314   -4.6533   57.4321 H       1  ZINC001371344729    0.0600
     36 H36        -8.8308   -4.0771   60.1143 H       1  ZINC001371344729    0.1500
     37 H37        -8.3799   -1.5027   60.3023 H       1  ZINC001371344729    0.2000
     38 H38       -11.7262    1.4576   53.9819 H       1  ZINC001371344729    0.0700
     39 H39       -10.7426    1.7857   52.5351 H       1  ZINC001371344729    0.0700
     40 H40       -11.8925    0.4269   52.5402 H       1  ZINC001371344729    0.0700
     41 H41        -8.9662   -1.5327   52.8084 H       1  ZINC001371344729    0.0800
     42 H42       -10.0327   -0.6808   51.6662 H       1  ZINC001371344729    0.0800
     43 H43        -8.2802    1.2607   52.2777 H       1  ZINC001371344729    0.4000
     44 H44        -4.8594   -0.6149   49.7780 H       1  ZINC001371344729    0.2100
     45 H45        -3.2855    3.7363   51.9014 H       1  ZINC001371344729    0.0800
     46 H46        -3.4653    3.9994   50.1502 H       1  ZINC001371344729    0.0800
     47 H47        -4.7543    4.5141   51.2644 H       1  ZINC001371344729    0.0900
     48 H48        -6.3840    2.6166   52.2253 H       1  ZINC001371344729    0.1600
@<TRIPOS>BOND
     1     1     2    1
     2     1    26    1
     3     1    27    1
     4     1    28    1
     5     2     3    1
     6     2    29    1
     7     2    30    1
     8     3     4   am
     9     3    13    1
    10     4     5    2
    11     4     6    1
    12     6     7    1
    13     6    31    1
    14     6    32    1
    15     7    12    1
    16     7     8    2
    17     8     9    1
    18     8    10    1
    19     9    33    1
    20     9    34    1
    21     9    35    1
    22    10    11    2
    23    10    36    1
    24    11    12    1
    25    11    37    1
    26    13    14    1
    27    13    15    1
    28    13    16    1
    29    15    38    1
    30    15    39    1
    31    15    40    1
    32    16    17    1
    33    16    41    1
    34    16    42    1
    35    17    18   am
    36    17    43    1
    37    18    19    2
    38    18    20    1
    39    20    25    1
    40    20    21    2
    41    21    22    1
    42    21    44    1
    43    22    23    1
    44    23    24    1
    45    23    25    2
    46    24    45    1
    47    24    46    1
    48    24    47    1
    49    25    48    1
@<TRIPOS>SUBSTRUCTURE
     1 ZINC001371344729        1 TEMP              0 ****  ****    0 ROOT


##########                                Name:    ZINC000007167963
##########                DOCK_Rotatable_Bonds:                   8
##########                         Heavy_Atoms:                  25
##########                    Molecular_Weight:             378.433
##########                DOCK_Rotatable_Bonds:                   8
##########                       Formal_Charge:        -1.01328e-06
##########                     HBond_Acceptors:                  10
##########                        HBond_Donors:                   3
##########                         Heavy_Atoms:                  25
##########                          Grid_Score:          -34.691246
##########                     Grid_vdw_energy:          -32.312477
##########                      Grid_es_energy:           -2.378768
##########           Internal_energy_repulsive:            7.469287

@<TRIPOS>MOLECULE
ZINC000007167963
 39 41 1 0 0
SMALL
USER_CHARGES


@<TRIPOS>ATOM
      1 C1         -1.3218    2.8780   56.5790 C.3     1  ZINC000007167963   -0.0800
      2 C2         -2.3094    3.9308   57.0119 C.2     1  ZINC000007167963    0.0900
      3 C3         -3.3159    4.4394   56.2500 C.2     1  ZINC000007167963   -0.1500
      4 C4         -3.6526    4.0755   54.8576 C.2     1  ZINC000007167963    0.2600
      5 N5         -4.6282    4.5754   54.1390 N.2     1  ZINC000007167963   -0.2700
      6 N6         -4.6256    4.0285   52.9746 N.2     1  ZINC000007167963   -0.2800
      7 C7         -3.6478    3.1573   52.9032 C.2     1  ZINC000007167963    0.1200
      8 S8         -3.2410    2.1583   51.5099 S.3     1  ZINC000007167963    0.1500
      9 C9         -4.5552    2.6585   50.3702 C.3     1  ZINC000007167963   -0.1200
     10 H10        -4.8021    3.7068   50.5379 H       1  ZINC000007167963    0.1400
     11 C11        -4.0786    2.4711   48.9284 C.3     1  ZINC000007167963   -0.1500
     12 C12        -5.7775    1.8100   50.6094 C.2     1  ZINC000007167963    0.5300
     13 O13        -6.6310    1.7209   49.7523 O.2     1  ZINC000007167963   -0.4900
     14 N14        -5.9221    1.1503   51.7757 N.am    1  ZINC000007167963   -0.6100
     15 C15        -7.0459    0.3683   51.9952 C.2     1  ZINC000007167963    0.0800
     16 C16        -8.1136    0.7385   52.7711 C.2     1  ZINC000007167963   -0.2400
     17 C17        -8.1998    2.0228   53.4731 C.2     1  ZINC000007167963    0.5900
     18 N18        -7.6186    2.1715   54.6800 N.am    1  ZINC000007167963   -0.8400
     19 O19        -8.7962    2.9547   52.9660 O.2     1  ZINC000007167963   -0.5600
     20 C20        -9.1467   -0.2727   52.8226 C.2     1  ZINC000007167963   -0.0900
     21 C21        -8.8552   -1.3524   52.1112 C.2     1  ZINC000007167963   -0.2800
     22 S22        -7.2926   -1.1820   51.3314 S.3     1  ZINC000007167963    0.3000
     23 O23        -3.0077    3.1705   54.0889 O.3     1  ZINC000007167963   -0.2000
     24 C24        -3.9987    5.4244   57.0991 C.2     1  ZINC000007167963   -0.1800
     25 C25        -3.3480    5.4153   58.2739 C.2     1  ZINC000007167963   -0.0300
     26 O26        -2.3493    4.5213   58.2150 O.3     1  ZINC000007167963   -0.1700
     27 H27        -0.6355    2.6648   57.3985 H       1  ZINC000007167963    0.0800
     28 H28        -1.8567    1.9680   56.3070 H       1  ZINC000007167963    0.1000
     29 H29        -0.7590    3.2398   55.7185 H       1  ZINC000007167963    0.1000
     30 H30        -3.1945    3.0848   48.7554 H       1  ZINC000007167963    0.0900
     31 H31        -3.8317    1.4228   48.7607 H       1  ZINC000007167963    0.0800
     32 H32        -4.8699    2.7724   48.2421 H       1  ZINC000007167963    0.0800
     33 H33        -5.2400    1.2226   52.4616 H       1  ZINC000007167963    0.4400
     34 H34        -7.6767    3.0209   55.1449 H       1  ZINC000007167963    0.4000
     35 H35        -7.1422    1.4293   55.0837 H       1  ZINC000007167963    0.4100
     36 H36       -10.0621   -0.1596   53.3842 H       1  ZINC000007167963    0.1500
     37 H37        -9.4946   -2.2181   52.0207 H       1  ZINC000007167963    0.1700
     38 H38        -4.8503    6.0327   56.8325 H       1  ZINC000007167963    0.1600
     39 H39        -3.5922    6.0265   59.1302 H       1  ZINC000007167963    0.2200
@<TRIPOS>BOND
     1     1     2    1
     2     1    27    1
     3     1    28    1
     4     1    29    1
     5     2    26    1
     6     2     3    2
     7     3     4    1
     8     3    24    1
     9     4    23    1
    10     4     5    2
    11     5     6    1
    12     6     7    2
    13     7     8    1
    14     7    23    1
    15     8     9    1
    16     9    10    1
    17     9    11    1
    18     9    12    1
    19    11    30    1
    20    11    31    1
    21    11    32    1
    22    12    13    2
    23    12    14   am
    24    14    15    1
    25    14    33    1
    26    15    22    1
    27    15    16    2
    28    16    17    1
    29    16    20    1
    30    17    18   am
    31    17    19    2
    32    18    34    1
    33    18    35    1
    34    20    21    2
    35    20    36    1
    36    21    22    1
    37    21    37    1
    38    24    25    2
    39    24    38    1
    40    25    26    1
    41    25    39    1
@<TRIPOS>SUBSTRUCTURE
     1 ZINC000007167963        1 TEMP              0 ****  ****    0 ROOT


##########                                Name:    ZINC001011267435
##########                DOCK_Rotatable_Bonds:                   7
##########                         Heavy_Atoms:                  24
##########                    Molecular_Weight:             331.458
##########                DOCK_Rotatable_Bonds:                   7
##########                       Formal_Charge:        -4.47035e-08
##########                     HBond_Acceptors:                   5
##########                        HBond_Donors:                   0
##########                         Heavy_Atoms:                  24
##########                          Grid_Score:          -34.667564
##########                     Grid_vdw_energy:          -34.598564
##########                      Grid_es_energy:           -0.069001
##########           Internal_energy_repulsive:           38.931828

@<TRIPOS>MOLECULE
ZINC001011267435
 53 54 1 0 0
SMALL
USER_CHARGES


@<TRIPOS>ATOM
      1 C1        -10.2720   -1.8466   52.5261 C.3     1  ZINC001011267435   -0.1500
      2 C2        -11.4292   -2.8470   52.5555 C.3     1  ZINC001011267435   -0.1200
      3 C3        -12.5569   -2.2967   53.4309 C.3     1  ZINC001011267435   -0.0700
      4 C4        -12.7157   -3.1666   54.6512 C.ar    1  ZINC001011267435    0.1300
      5 C5        -11.6822   -3.2558   55.5633 C.ar    1  ZINC001011267435   -0.1200
      6 C6        -11.8418   -4.0664   56.6916 C.ar    1  ZINC001011267435   -0.0800
      7 C7        -10.7613   -4.1926   57.6972 C.2     1  ZINC001011267435    0.5600
      8 O8        -10.1614   -5.2427   57.8160 O.2     1  ZINC001011267435   -0.5200
      9 N9        -10.4436   -3.1428   58.4804 N.am    1  ZINC001011267435   -0.6100
     10 C10       -11.1646   -1.8687   58.3521 C.3     1  ZINC001011267435    0.0700
     11 C11       -11.7312   -1.4857   59.7249 C.3     1  ZINC001011267435    0.1000
     12 N12       -10.6579   -1.5947   60.7229 N.am    1  ZINC001011267435   -0.6200
     13 C13       -10.3407   -0.5451   61.5067 C.2     1  ZINC001011267435    0.5300
     14 O14        -9.4529   -0.6472   62.3266 O.2     1  ZINC001011267435   -0.5300
     15 C15       -11.0890    0.7551   61.3642 C.3     1  ZINC001011267435   -0.1100
     16 H16       -12.1405    0.5491   61.1641 H       1  ZINC001011267435    0.0900
     17 C17       -10.4974    1.5597   60.2050 C.3     1  ZINC001011267435   -0.1500
     18 C18       -10.9645    1.5598   62.6594 C.3     1  ZINC001011267435   -0.0800
     19 C19       -11.7382    2.8724   62.5209 C.3     1  ZINC001011267435   -0.1500
     20 C20       -11.5409    0.7484   63.8214 C.3     1  ZINC001011267435   -0.1500
     21 C21        -9.9368   -2.8689   60.8512 C.3     1  ZINC001011267435    0.0900
     22 C22        -9.3741   -3.2536   59.4823 C.3     1  ZINC001011267435    0.1000
     23 C23       -13.0495   -4.7537   56.8445 C.ar    1  ZINC001011267435   -0.1600
     24 C24       -14.0304   -4.6067   55.8826 C.ar    1  ZINC001011267435    0.1100
     25 N25       -13.8409   -3.8279   54.8364 N.ar    1  ZINC001011267435   -0.4600
     26 H26       -10.6211   -0.8991   52.1158 H       1  ZINC001011267435    0.0600
     27 H27        -9.9018   -1.6895   53.5392 H       1  ZINC001011267435    0.0500
     28 H28        -9.4686   -2.2387   51.9024 H       1  ZINC001011267435    0.0600
     29 H29       -11.7995   -3.0041   51.5424 H       1  ZINC001011267435    0.0700
     30 H30       -11.0801   -3.7946   52.9658 H       1  ZINC001011267435    0.0600
     31 H31       -12.3146   -1.2796   53.7388 H       1  ZINC001011267435    0.0800
     32 H32       -13.4879   -2.2927   52.8640 H       1  ZINC001011267435    0.0900
     33 H33       -10.7646   -2.7080   55.4073 H       1  ZINC001011267435    0.1400
     34 H34       -10.4792   -1.0932   58.0100 H       1  ZINC001011267435    0.0800
     35 H35       -11.9804   -1.9803   57.6379 H       1  ZINC001011267435    0.1100
     36 H36       -12.1004   -0.4605   59.6953 H       1  ZINC001011267435    0.1100
     37 H37       -12.5443   -2.1626   59.9869 H       1  ZINC001011267435    0.0700
     38 H38       -10.9828    2.5343   60.1542 H       1  ZINC001011267435    0.0800
     39 H39        -9.4277    1.6945   60.3649 H       1  ZINC001011267435    0.0600
     40 H40       -10.6602    1.0235   59.2701 H       1  ZINC001011267435    0.0600
     41 H41        -9.9139    1.7761   62.8532 H       1  ZINC001011267435    0.0800
     42 H42       -11.6495    3.4458   63.4436 H       1  ZINC001011267435    0.0600
     43 H43       -11.3276    3.4505   61.6930 H       1  ZINC001011267435    0.0600
     44 H44       -12.7888    2.6561   62.3270 H       1  ZINC001011267435    0.0600
     45 H45       -10.9896   -0.1868   63.9202 H       1  ZINC001011267435    0.0600
     46 H46       -11.4522    1.3217   64.7442 H       1  ZINC001011267435    0.0600
     47 H47       -12.5915    0.5320   63.6276 H       1  ZINC001011267435    0.0500
     48 H48        -9.1210   -2.7572   61.5654 H       1  ZINC001011267435    0.1000
     49 H49       -10.6223   -3.6442   61.1934 H       1  ZINC001011267435    0.0800
     50 H50        -9.0052   -4.2788   59.5133 H       1  ZINC001011267435    0.1100
     51 H51        -8.5609   -2.5775   59.2178 H       1  ZINC001011267435    0.0800
     52 H52       -13.2131   -5.3905   57.7014 H       1  ZINC001011267435    0.1500
     53 H53       -14.9667   -5.1339   55.9916 H       1  ZINC001011267435    0.1700
@<TRIPOS>BOND
     1     1     2    1
     2     1    26    1
     3     1    27    1
     4     1    28    1
     5     2     3    1
     6     2    29    1
     7     2    30    1
     8     3     4    1
     9     3    31    1
    10     3    32    1
    11     4    25   ar
    12     4     5   ar
    13     5     6   ar
    14     5    33    1
    15     6     7    1
    16     6    23   ar
    17     7     8    2
    18     7     9   am
    19     9    22    1
    20     9    10    1
    21    10    11    1
    22    10    34    1
    23    10    35    1
    24    11    12    1
    25    11    36    1
    26    11    37    1
    27    12    13   am
    28    12    21    1
    29    13    14    2
    30    13    15    1
    31    15    16    1
    32    15    17    1
    33    15    18    1
    34    17    38    1
    35    17    39    1
    36    17    40    1
    37    18    19    1
    38    18    20    1
    39    18    41    1
    40    19    42    1
    41    19    43    1
    42    19    44    1
    43    20    45    1
    44    20    46    1
    45    20    47    1
    46    21    22    1
    47    21    48    1
    48    21    49    1
    49    22    50    1
    50    22    51    1
    51    23    24   ar
    52    23    52    1
    53    24    25   ar
    54    24    53    1
@<TRIPOS>SUBSTRUCTURE
     1 ZINC001011267435        1 TEMP              0 ****  ****    0 ROOT


##########                                Name:    ZINC000119180466
##########                DOCK_Rotatable_Bonds:                  10
##########                         Heavy_Atoms:                  23
##########                    Molecular_Weight:             350.405
##########                DOCK_Rotatable_Bonds:                  10
##########                       Formal_Charge:           0.0299997
##########                     HBond_Acceptors:                   8
##########                        HBond_Donors:                   3
##########                         Heavy_Atoms:                  23
##########                          Grid_Score:          -34.646252
##########                     Grid_vdw_energy:          -29.279684
##########                      Grid_es_energy:           -5.366568
##########           Internal_energy_repulsive:           16.047842

@<TRIPOS>MOLECULE
ZINC000119180466
 44 44 1 0 0
SMALL
USER_CHARGES


@<TRIPOS>ATOM
      1 C1        -13.3231   -2.6599   58.9271 C.3     1  ZINC000119180466   -0.1300
      2 S2        -11.7883   -2.5010   59.8809 S.3     1  ZINC000119180466   -0.2200
      3 C3        -10.6048   -1.8879   58.6504 C.3     1  ZINC000119180466   -0.0700
      4 H4        -10.7596   -2.4095   57.7059 H       1  ZINC000119180466    0.1100
      5 C5         -9.1789   -2.1400   59.1444 C.3     1  ZINC000119180466    0.0800
      6 O6         -9.1960   -2.3611   60.5561 O.3     1  ZINC000119180466   -0.5600
      7 C7        -10.8152   -0.3865   58.4443 C.3     1  ZINC000119180466    0.1900
      8 H8        -11.8357   -0.2057   58.1065 H       1  ZINC000119180466    0.1000
      9 C9        -10.5777    0.3478   59.7653 C.3     1  ZINC000119180466   -0.1700
     10 N10        -9.8728    0.1047   57.4361 N.am    1  ZINC000119180466   -0.7200
     11 C11       -10.1768    0.0099   56.1264 C.2     1  ZINC000119180466    0.7100
     12 O12       -11.2341   -0.4820   55.7819 O.2     1  ZINC000119180466   -0.6000
     13 N13        -9.3091    0.4604   55.1988 N.am    1  ZINC000119180466   -0.7400
     14 C14        -9.6404    0.3590   53.7753 C.3     1  ZINC000119180466    0.2000
     15 H15       -10.0187   -0.6404   53.5607 H       1  ZINC000119180466    0.1000
     16 C16       -10.7104    1.3954   53.4257 C.3     1  ZINC000119180466   -0.1600
     17 C17        -8.4044    0.6158   52.9524 C.ar    1  ZINC000119180466   -0.0600
     18 C18        -7.9651   -0.3346   52.0498 C.ar    1  ZINC000119180466   -0.1100
     19 C19        -6.8312   -0.0990   51.2950 C.ar    1  ZINC000119180466   -0.0600
     20 C20        -6.1369    1.0872   51.4425 C.ar    1  ZINC000119180466   -0.1800
     21 C21        -4.9005    1.3437   50.6201 C.3     1  ZINC000119180466    0.5100
     22 F22        -5.2338    2.1247   49.5082 F       1  ZINC000119180466   -0.1800
     23 F23        -3.9547    2.0199   51.3982 F       1  ZINC000119180466   -0.1800
     24 F24        -4.3651    0.1248   50.1901 F       1  ZINC000119180466   -0.1800
     25 C25        -6.5768    2.0381   52.3441 C.ar    1  ZINC000119180466   -0.0600
     26 C26        -7.7129    1.8042   53.0962 C.ar    1  ZINC000119180466   -0.1100
     27 H27       -13.1702   -3.3614   58.1069 H       1  ZINC000119180466    0.0800
     28 H28       -14.1179   -3.0273   59.5762 H       1  ZINC000119180466    0.1000
     29 H29       -13.6035   -1.6863   58.5248 H       1  ZINC000119180466    0.0800
     30 H30        -8.7710   -3.0183   58.6440 H       1  ZINC000119180466    0.0500
     31 H31        -8.5579   -1.2728   58.9199 H       1  ZINC000119180466    0.0600
     32 H32        -8.3201   -2.4931   60.9441 H       1  ZINC000119180466    0.3800
     33 H33        -9.5572    0.1670   60.1032 H       1  ZINC000119180466    0.0700
     34 H34       -10.7276    1.4175   59.6184 H       1  ZINC000119180466    0.0700
     35 H35       -11.2789   -0.0176   60.5155 H       1  ZINC000119180466    0.0700
     36 H36        -9.0299    0.4983   57.7109 H       1  ZINC000119180466    0.4100
     37 H37        -8.4652    0.8518   55.4736 H       1  ZINC000119180466    0.4000
     38 H38       -10.9569    1.3199   52.3667 H       1  ZINC000119180466    0.0700
     39 H39       -11.6044    1.2096   54.0210 H       1  ZINC000119180466    0.0700
     40 H40       -10.3320    2.3947   53.6404 H       1  ZINC000119180466    0.0600
     41 H41        -8.5077   -1.2613   51.9346 H       1  ZINC000119180466    0.1300
     42 H42        -6.4877   -0.8418   50.5903 H       1  ZINC000119180466    0.1400
     43 H43        -6.0345    2.9649   52.4592 H       1  ZINC000119180466    0.1400
     44 H44        -8.0567    2.5470   53.8007 H       1  ZINC000119180466    0.1400
@<TRIPOS>BOND
     1     1     2    1
     2     1    27    1
     3     1    28    1
     4     1    29    1
     5     2     3    1
     6     3     4    1
     7     3     5    1
     8     3     7    1
     9     5     6    1
    10     5    30    1
    11     5    31    1
    12     6    32    1
    13     7     8    1
    14     7     9    1
    15     7    10    1
    16     9    33    1
    17     9    34    1
    18     9    35    1
    19    10    11   am
    20    10    36    1
    21    11    12    2
    22    11    13   am
    23    13    14    1
    24    13    37    1
    25    14    15    1
    26    14    16    1
    27    14    17    1
    28    16    38    1
    29    16    39    1
    30    16    40    1
    31    17    26   ar
    32    17    18   ar
    33    18    19   ar
    34    18    41    1
    35    19    20   ar
    36    19    42    1
    37    20    21    1
    38    20    25   ar
    39    21    22    1
    40    21    23    1
    41    21    24    1
    42    25    26   ar
    43    25    43    1
    44    26    44    1
@<TRIPOS>SUBSTRUCTURE
     1 ZINC000119180466        1 TEMP              0 ****  ****    0 ROOT


##########                                Name:    ZINC000329637067
##########                DOCK_Rotatable_Bonds:                   5
##########                         Heavy_Atoms:                  26
##########                    Molecular_Weight:             362.429
##########                DOCK_Rotatable_Bonds:                   5
##########                       Formal_Charge:           0.0199998
##########                     HBond_Acceptors:                   8
##########                        HBond_Donors:                   0
##########                         Heavy_Atoms:                  26
##########                          Grid_Score:          -34.625931
##########                     Grid_vdw_energy:          -32.998390
##########                      Grid_es_energy:           -1.627542
##########           Internal_energy_repulsive:           26.122868

@<TRIPOS>MOLECULE
ZINC000329637067
 52 54 1 0 0
SMALL
USER_CHARGES


@<TRIPOS>ATOM
      1 C1         -6.1704    3.3253   53.5028 C.3     1  ZINC000329637067   -0.1300
      2 C2         -5.7433    2.5079   52.3109 C.2     1  ZINC000329637067    0.2200
      3 C3         -4.7329    2.9377   51.5078 C.2     1  ZINC000329637067   -0.2900
      4 C4         -4.3593    2.1576   50.4095 C.2     1  ZINC000329637067    0.2800
      5 C5         -3.2427    2.6118   49.5051 C.3     1  ZINC000329637067   -0.1200
      6 N6         -4.9856    1.0239   50.1673 N.2     1  ZINC000329637067   -0.5500
      7 C7         -5.9766    0.6072   50.9592 C.2     1  ZINC000329637067    0.6400
      8 O8         -6.5402   -0.4459   50.7131 O.2     1  ZINC000329637067   -0.5300
      9 N9         -6.3589    1.3301   52.0286 N.am    1  ZINC000329637067   -0.5000
     10 C10        -7.4487    0.8517   52.8827 C.3     1  ZINC000329637067    0.0700
     11 C11        -8.7473    1.4712   52.4344 C.2     1  ZINC000329637067    0.5100
     12 O12        -8.7737    2.1778   51.4490 O.2     1  ZINC000329637067   -0.5200
     13 N13        -9.8793    1.2399   53.1283 N.am    1  ZINC000329637067   -0.6100
     14 C14       -11.1529    1.8368   52.7035 C.3     1  ZINC000329637067    0.1000
     15 C15       -12.1951    0.7235   52.5584 C.3     1  ZINC000329637067   -0.1400
     16 C16       -12.2767   -0.0671   53.8661 C.3     1  ZINC000329637067   -0.1000
     17 C17       -10.9200   -0.7110   54.1604 C.3     1  ZINC000329637067   -0.1200
     18 H18       -10.6407   -1.3650   53.3343 H       1  ZINC000329637067    0.1000
     19 C19       -11.0105   -1.5165   55.4310 C.2     1  ZINC000329637067    0.5300
     20 O20       -10.6582   -1.0292   56.4842 O.2     1  ZINC000329637067   -0.5300
     21 N21       -11.4828   -2.7783   55.3967 N.am    1  ZINC000329637067   -0.6200
     22 C22       -11.5862   -3.5820   56.6251 C.3     1  ZINC000329637067    0.0800
     23 C23       -13.0012   -4.1665   56.7028 C.3     1  ZINC000329637067    0.0500
     24 O24       -13.3006   -4.8388   55.4771 O.3     1  ZINC000329637067   -0.3800
     25 C25       -13.3099   -3.9867   54.3293 C.3     1  ZINC000329637067    0.0500
     26 C26       -11.9160   -3.3909   54.1309 C.3     1  ZINC000329637067    0.0700
     27 C27        -9.8644    0.3811   54.3203 C.3     1  ZINC000329637067    0.1200
     28 H28        -6.1134    2.7128   54.4026 H       1  ZINC000329637067    0.0900
     29 H29        -5.5111    4.1871   53.6074 H       1  ZINC000329637067    0.1000
     30 H30        -7.1955    3.6672   53.3603 H       1  ZINC000329637067    0.0900
     31 H31        -4.2268    3.8688   51.7156 H       1  ZINC000329637067    0.1600
     32 H32        -2.2945    2.2205   49.8739 H       1  ZINC000329637067    0.1000
     33 H33        -3.4200    2.2424   48.4951 H       1  ZINC000329637067    0.0900
     34 H34        -3.2059    3.7012   49.4924 H       1  ZINC000329637067    0.0900
     35 H35        -7.5191   -0.2334   52.8085 H       1  ZINC000329637067    0.1200
     36 H36        -7.2499    1.1330   53.9170 H       1  ZINC000329637067    0.1300
     37 H37       -11.4874    2.5551   53.4520 H       1  ZINC000329637067    0.0800
     38 H38       -11.0194    2.3396   51.7456 H       1  ZINC000329637067    0.0900
     39 H39       -13.1680    1.1625   52.3373 H       1  ZINC000329637067    0.0900
     40 H40       -11.9039    0.0561   51.7472 H       1  ZINC000329637067    0.0700
     41 H41       -12.5439    0.6055   54.6811 H       1  ZINC000329637067    0.0800
     42 H42       -13.0352   -0.8445   53.7737 H       1  ZINC000329637067    0.0800
     43 H43       -10.8559   -4.3906   56.5973 H       1  ZINC000329637067    0.0800
     44 H44       -11.4019   -2.9499   57.4939 H       1  ZINC000329637067    0.1000
     45 H45       -13.0578   -4.8745   57.5296 H       1  ZINC000329637067    0.1100
     46 H46       -13.7193   -3.3620   56.8615 H       1  ZINC000329637067    0.0600
     47 H47       -13.5886   -4.5653   53.4485 H       1  ZINC000329637067    0.1100
     48 H48       -14.0291   -3.1816   54.4794 H       1  ZINC000329637067    0.0600
     49 H49       -11.9484   -2.6341   53.3473 H       1  ZINC000329637067    0.1000
     50 H50       -11.2163   -4.1789   53.8524 H       1  ZINC000329637067    0.0800
     51 H51        -8.8807   -0.0751   54.4314 H       1  ZINC000329637067    0.1000
     52 H52       -10.0918    0.9830   55.2001 H       1  ZINC000329637067    0.0800
@<TRIPOS>BOND
     1     1     2    1
     2     1    28    1
     3     1    29    1
     4     1    30    1
     5     2     9    1
     6     2     3    2
     7     3     4    1
     8     3    31    1
     9     4     5    1
    10     4     6    2
    11     5    32    1
    12     5    33    1
    13     5    34    1
    14     6     7    1
    15     7     8    2
    16     7     9   am
    17     9    10    1
    18    10    11    1
    19    10    35    1
    20    10    36    1
    21    11    12    2
    22    11    13   am
    23    13    27    1
    24    13    14    1
    25    14    15    1
    26    14    37    1
    27    14    38    1
    28    15    16    1
    29    15    39    1
    30    15    40    1
    31    16    17    1
    32    16    41    1
    33    16    42    1
    34    17    18    1
    35    17    19    1
    36    17    27    1
    37    19    20    2
    38    19    21   am
    39    21    26    1
    40    21    22    1
    41    22    23    1
    42    22    43    1
    43    22    44    1
    44    23    24    1
    45    23    45    1
    46    23    46    1
    47    24    25    1
    48    25    26    1
    49    25    47    1
    50    25    48    1
    51    26    49    1
    52    26    50    1
    53    27    51    1
    54    27    52    1
@<TRIPOS>SUBSTRUCTURE
     1 ZINC000329637067        1 TEMP              0 ****  ****    0 ROOT


##########                                Name:    ZINC000543429378
##########                DOCK_Rotatable_Bonds:                   6
##########                         Heavy_Atoms:                  29
##########                    Molecular_Weight:             406.408
##########                DOCK_Rotatable_Bonds:                   6
##########                       Formal_Charge:           0.0100003
##########                     HBond_Acceptors:                   9
##########                        HBond_Donors:                   1
##########                         Heavy_Atoms:                  29
##########                          Grid_Score:          -34.618687
##########                     Grid_vdw_energy:          -34.716106
##########                      Grid_es_energy:            0.097419
##########           Internal_energy_repulsive:           40.315674

@<TRIPOS>MOLECULE
ZINC000543429378
 50 53 1 0 0
SMALL
USER_CHARGES


@<TRIPOS>ATOM
      1 O1         -3.8271    1.0172   51.1994 O.2     1  ZINC000543429378   -0.5100
      2 C2         -4.1315    1.8147   50.3378 C.2     1  ZINC000543429378    0.5200
      3 N3         -5.4305    2.0646   50.0793 N.am    1  ZINC000543429378   -0.6600
      4 C4         -6.4279    1.3998   50.8011 C.ar    1  ZINC000543429378    0.1900
      5 C5         -6.4560    0.0116   50.8314 C.ar    1  ZINC000543429378   -0.1600
      6 C6         -7.4407   -0.6448   51.5446 C.ar    1  ZINC000543429378   -0.0600
      7 C7         -8.3997    0.0773   52.2287 C.ar    1  ZINC000543429378   -0.2100
      8 C8         -8.3764    1.4649   52.2019 C.ar    1  ZINC000543429378    0.1300
      9 O9         -9.3202    2.1739   52.8752 O.3     1  ZINC000543429378   -0.3100
     10 C10        -9.3802    3.5789   52.6212 C.3     1  ZINC000543429378    0.6000
     11 F11        -9.4183    3.8020   51.2406 F       1  ZINC000543429378   -0.1600
     12 F12       -10.5317    4.1108   53.2115 F       1  ZINC000543429378   -0.1300
     13 F13        -8.2494    4.1993   53.1628 F       1  ZINC000543429378   -0.1600
     14 C14        -7.3870    2.1269   51.4923 C.ar    1  ZINC000543429378   -0.1300
     15 C15        -3.0573    2.5307   49.5604 C.3     1  ZINC000543429378    0.0700
     16 H16        -3.4698    2.9209   48.6300 H       1  ZINC000543429378    0.1200
     17 C17        -1.8873    1.5562   49.2532 C.3     1  ZINC000543429378   -0.1200
     18 C18        -0.6633    2.4697   49.4211 C.3     1  ZINC000543429378   -0.1000
     19 H19        -0.5247    3.1041   48.5457 H       1  ZINC000543429378    0.0900
     20 C20         0.6289    1.7609   49.7897 C.3     1  ZINC000543429378   -0.1100
     21 C21         1.6905    2.8450   50.0348 C.3     1  ZINC000543429378   -0.1200
     22 C22         1.2599    3.8108   51.1347 C.3     1  ZINC000543429378   -0.1100
     23 C23        -0.1149    4.4293   50.8308 C.3     1  ZINC000543429378   -0.0900
     24 C24        -1.1055    3.3020   50.6553 C.3     1  ZINC000543429378    0.0700
     25 H25        -1.0719    2.6542   51.5312 H       1  ZINC000543429378    0.0900
     26 N26        -2.4998    3.6432   50.3733 N.3     1  ZINC000543429378   -0.4300
     27 C27        -3.2198    3.7967   51.5453 C.ar    1  ZINC000543429378    0.5000
     28 N28        -4.3031    4.5595   51.5436 N.ar    1  ZINC000543429378   -0.5300
     29 C29        -5.0141    4.7268   52.6464 C.ar    1  ZINC000543429378    0.1800
     30 C30        -4.6131    4.0928   53.8120 C.ar    1  ZINC000543429378   -0.2500
     31 C31        -3.4752    3.3022   53.7785 C.ar    1  ZINC000543429378    0.1800
     32 N32        -2.8125    3.1729   52.6410 N.ar    1  ZINC000543429378   -0.5300
     33 H33        -5.6738    2.7053   49.3929 H       1  ZINC000543429378    0.4200
     34 H34        -5.7081   -0.5552   50.2969 H       1  ZINC000543429378    0.1400
     35 H35        -7.4611   -1.7244   51.5669 H       1  ZINC000543429378    0.1400
     36 H36        -9.1685   -0.4385   52.7847 H       1  ZINC000543429378    0.1400
     37 H37        -7.3673    3.2066   51.4704 H       1  ZINC000543429378    0.1500
     38 H38        -1.8636    0.7368   49.9716 H       1  ZINC000543429378    0.0800
     39 H39        -1.9535    1.1768   48.2335 H       1  ZINC000543429378    0.0900
     40 H40         0.4837    1.1725   50.6957 H       1  ZINC000543429378    0.0700
     41 H41         0.9428    1.1126   48.9716 H       1  ZINC000543429378    0.0700
     42 H42         2.6263    2.3679   50.3259 H       1  ZINC000543429378    0.0600
     43 H43         1.8488    3.4035   49.1123 H       1  ZINC000543429378    0.0600
     44 H44         1.2076    3.2729   52.0813 H       1  ZINC000543429378    0.0600
     45 H45         1.9988    4.6077   51.2190 H       1  ZINC000543429378    0.0700
     46 H46        -0.4242    5.0693   51.6572 H       1  ZINC000543429378    0.0700
     47 H47        -0.0646    5.0101   49.9098 H       1  ZINC000543429378    0.0700
     48 H48        -5.8959    5.3501   52.6389 H       1  ZINC000543429378    0.1600
     49 H49        -5.1750    4.2126   54.7265 H       1  ZINC000543429378    0.1400
     50 H50        -3.1358    2.7949   54.6694 H       1  ZINC000543429378    0.1600
@<TRIPOS>BOND
     1     1     2    2
     2     2     3   am
     3     2    15    1
     4     3     4    1
     5     3    33    1
     6     4    14   ar
     7     4     5   ar
     8     5     6   ar
     9     5    34    1
    10     6     7   ar
    11     6    35    1
    12     7     8   ar
    13     7    36    1
    14     8     9    1
    15     8    14   ar
    16     9    10    1
    17    10    11    1
    18    10    12    1
    19    10    13    1
    20    14    37    1
    21    15    16    1
    22    15    26    1
    23    15    17    1
    24    17    18    1
    25    17    38    1
    26    17    39    1
    27    18    19    1
    28    18    24    1
    29    18    20    1
    30    20    21    1
    31    20    40    1
    32    20    41    1
    33    21    22    1
    34    21    42    1
    35    21    43    1
    36    22    23    1
    37    22    44    1
    38    22    45    1
    39    23    24    1
    40    23    46    1
    41    23    47    1
    42    24    25    1
    43    24    26    1
    44    26    27    1
    45    27    32   ar
    46    27    28   ar
    47    28    29   ar
    48    29    30   ar
    49    29    48    1
    50    30    31   ar
    51    30    49    1
    52    31    32   ar
    53    31    50    1
@<TRIPOS>SUBSTRUCTURE
     1 ZINC000543429378        1 TEMP              0 ****  ****    0 ROOT


##########                                Name:    ZINC000647468483
##########                DOCK_Rotatable_Bonds:                   5
##########                         Heavy_Atoms:                  24
##########                    Molecular_Weight:             341.373
##########                DOCK_Rotatable_Bonds:                   5
##########                       Formal_Charge:           0.0300004
##########                     HBond_Acceptors:                   6
##########                        HBond_Donors:                   2
##########                         Heavy_Atoms:                  24
##########                          Grid_Score:          -34.614967
##########                     Grid_vdw_energy:          -28.297184
##########                      Grid_es_energy:           -6.317781
##########           Internal_energy_repulsive:           18.641426

@<TRIPOS>MOLECULE
ZINC000647468483
 46 48 1 0 0
SMALL
USER_CHARGES


@<TRIPOS>ATOM
      1 O1          4.3376    2.5273   50.8356 O.co2   1  ZINC000647468483   -0.6800
      2 C2          3.4688    1.6746   50.9025 C.2     1  ZINC000647468483    0.5000
      3 O3          3.5653    0.7680   51.7121 O.co2   1  ZINC000647468483   -0.6900
      4 C4          2.2723    1.7446   49.9887 C.3     1  ZINC000647468483   -0.1500
      5 H5          2.4541    1.1820   49.0731 H       1  ZINC000647468483    0.0800
      6 C6          1.9131    3.2164   49.6665 C.3     1  ZINC000647468483   -0.1100
      7 C7          0.4188    3.1667   49.2870 C.3     1  ZINC000647468483   -0.1400
      8 C8         -0.1615    1.9052   49.9500 C.3     1  ZINC000647468483    0.0100
      9 H9         -0.5514    1.2291   49.1891 H       1  ZINC000647468483    0.1400
     10 N10        -1.2293    2.2757   50.8883 N.4     1  ZINC000647468483   -0.5000
     11 H11        -1.5216    1.4594   51.4045 H       1  ZINC000647468483    0.4200
     12 H12        -0.8857    2.9743   51.5301 H       1  ZINC000647468483    0.4300
     13 C13        -2.3719    2.8174   50.1405 C.3     1  ZINC000647468483    0.0200
     14 H14        -2.0339    3.5919   49.4522 H       1  ZINC000647468483    0.1500
     15 C15        -3.0746    1.6910   49.3627 C.3     1  ZINC000647468483   -0.1400
     16 C16        -4.5213    1.6245   49.8940 C.3     1  ZINC000647468483   -0.1300
     17 C17        -4.4347    2.2453   51.3104 C.3     1  ZINC000647468483   -0.1300
     18 C18        -3.4155    3.3973   51.1174 C.3     1  ZINC000647468483   -0.0600
     19 H19        -3.9035    4.2693   50.6819 H       1  ZINC000647468483    0.1300
     20 C20        -2.7707    3.7566   52.4313 C.ar    1  ZINC000647468483   -0.1200
     21 C21        -1.6464    4.5600   52.4524 C.ar    1  ZINC000647468483   -0.0700
     22 C22        -1.0548    4.8897   53.6577 C.ar    1  ZINC000647468483   -0.1000
     23 C23        -1.5881    4.4161   54.8416 C.ar    1  ZINC000647468483   -0.0600
     24 C24        -2.7134    3.6131   54.8205 C.ar    1  ZINC000647468483   -0.1600
     25 C25        -3.2946    3.0964   56.1115 C.3     1  ZINC000647468483    0.5000
     26 F26        -4.6503    2.8038   55.9283 F       1  ZINC000647468483   -0.1700
     27 F27        -2.6149    1.9362   56.4975 F       1  ZINC000647468483   -0.1700
     28 F28        -3.1580    4.0699   57.1069 F       1  ZINC000647468483   -0.1700
     29 C29        -3.3072    3.2871   53.6158 C.ar    1  ZINC000647468483   -0.1100
     30 C30         1.0016    1.2276   50.7077 C.3     1  ZINC000647468483   -0.1200
     31 H31         2.0633    3.8465   50.5432 H       1  ZINC000647468483    0.0800
     32 H32         2.5078    3.5794   48.8282 H       1  ZINC000647468483    0.0800
     33 H33        -0.0914    4.0539   49.6619 H       1  ZINC000647468483    0.0700
     34 H34         0.3104    3.1029   48.2042 H       1  ZINC000647468483    0.1000
     35 H35        -3.0783    1.9193   48.2969 H       1  ZINC000647468483    0.1000
     36 H36        -2.5678    0.7423   49.5400 H       1  ZINC000647468483    0.0900
     37 H37        -5.1876    2.2104   49.2608 H       1  ZINC000647468483    0.0800
     38 H38        -4.8597    0.5899   49.9510 H       1  ZINC000647468483    0.0900
     39 H39        -5.4039    2.6352   51.6212 H       1  ZINC000647468483    0.0900
     40 H40        -4.0619    1.5160   52.0296 H       1  ZINC000647468483    0.0800
     41 H41        -1.2297    4.9301   51.5272 H       1  ZINC000647468483    0.1400
     42 H42        -0.1758    5.5169   53.6741 H       1  ZINC000647468483    0.1500
     43 H43        -1.1255    4.6730   55.7831 H       1  ZINC000647468483    0.1500
     44 H44        -4.1863    2.6599   53.5994 H       1  ZINC000647468483    0.1400
     45 H45         0.9276    0.1430   50.6291 H       1  ZINC000647468483    0.0900
     46 H46         1.0067    1.5358   51.7533 H       1  ZINC000647468483    0.1000
@<TRIPOS>BOND
     1     1     2   ar
     2     2     3   ar
     3     2     4    1
     4     4     5    1
     5     4    30    1
     6     4     6    1
     7     6     7    1
     8     6    31    1
     9     6    32    1
    10     7     8    1
    11     7    33    1
    12     7    34    1
    13     8     9    1
    14     8    10    1
    15     8    30    1
    16    10    11    1
    17    10    12    1
    18    10    13    1
    19    13    14    1
    20    13    18    1
    21    13    15    1
    22    15    16    1
    23    15    35    1
    24    15    36    1
    25    16    17    1
    26    16    37    1
    27    16    38    1
    28    17    18    1
    29    17    39    1
    30    17    40    1
    31    18    19    1
    32    18    20    1
    33    20    29   ar
    34    20    21   ar
    35    21    22   ar
    36    21    41    1
    37    22    23   ar
    38    22    42    1
    39    23    24   ar
    40    23    43    1
    41    24    25    1
    42    24    29   ar
    43    25    26    1
    44    25    27    1
    45    25    28    1
    46    29    44    1
    47    30    45    1
    48    30    46    1
@<TRIPOS>SUBSTRUCTURE
     1 ZINC000647468483        1 TEMP              0 ****  ****    0 ROOT


##########                                Name:    ZINC000523878927
##########                DOCK_Rotatable_Bonds:                   8
##########                         Heavy_Atoms:                  27
##########                    Molecular_Weight:             376.474
##########                DOCK_Rotatable_Bonds:                   8
##########                       Formal_Charge:          0.00999957
##########                     HBond_Acceptors:                   7
##########                        HBond_Donors:                   3
##########                         Heavy_Atoms:                  27
##########                          Grid_Score:          -34.578423
##########                     Grid_vdw_energy:          -32.962894
##########                      Grid_es_energy:           -1.615528
##########           Internal_energy_repulsive:            9.945544

@<TRIPOS>MOLECULE
ZINC000523878927
 56 58 1 0 0
SMALL
USER_CHARGES


@<TRIPOS>ATOM
      1 C1        -11.1844   -2.9320   54.5868 C.3     1  ZINC000523878927   -0.1500
      2 C2        -12.0576   -1.6947   54.8045 C.3     1  ZINC000523878927   -0.0900
      3 H3        -12.7556   -1.8816   55.6206 H       1  ZINC000523878927    0.0700
      4 C4        -12.8390   -1.3905   53.5247 C.3     1  ZINC000523878927   -0.1200
      5 C5        -11.8593   -1.1281   52.3792 C.3     1  ZINC000523878927   -0.1200
      6 C6        -10.9714    0.0673   52.7311 C.3     1  ZINC000523878927   -0.1100
      7 C7        -10.1901   -0.2370   54.0108 C.3     1  ZINC000523878927   -0.1000
      8 H8         -9.5680   -1.1184   53.8558 H       1  ZINC000523878927    0.0800
      9 C9         -9.3024    0.9584   54.3627 C.3     1  ZINC000523878927    0.1400
     10 N10        -8.1570    1.0015   53.4502 N.am    1  ZINC000523878927   -0.7400
     11 C11        -8.1623    1.8484   52.4018 C.2     1  ZINC000523878927    0.7200
     12 O12        -9.1181    2.5757   52.2125 O.2     1  ZINC000523878927   -0.5800
     13 N13        -7.1079    1.8891   51.5632 N.am    1  ZINC000523878927   -0.6400
     14 C14        -6.9821    2.7633   50.3829 C.3     1  ZINC000523878927    0.1000
     15 C15        -5.4565    2.9005   50.1519 C.3     1  ZINC000523878927   -0.1400
     16 C16        -4.9569    1.4776   50.5171 C.3     1  ZINC000523878927    0.1500
     17 H17        -5.0714    0.7998   49.6712 H       1  ZINC000523878927    0.1100
     18 N18        -3.5618    1.5166   50.9625 N.am    1  ZINC000523878927   -0.7300
     19 C19        -2.5919    1.8973   50.1075 C.2     1  ZINC000523878927    0.7100
     20 O20        -2.8750    2.2099   48.9671 O.2     1  ZINC000523878927   -0.5700
     21 N21        -1.3082    1.9316   50.5167 N.am    1  ZINC000523878927   -0.6800
     22 C22        -0.3003    2.3272   49.6283 C.ar    1  ZINC000523878927    0.1500
     23 C23         0.1739    3.6319   49.6514 C.ar    1  ZINC000523878927   -0.1200
     24 C24         1.1681    4.0200   48.7748 C.ar    1  ZINC000523878927   -0.1300
     25 C25         1.6916    3.1089   47.8729 C.ar    1  ZINC000523878927    0.0800
     26 F26         2.6638    3.4905   47.0160 F       1  ZINC000523878927   -0.1400
     27 C27         1.2204    1.8072   47.8486 C.ar    1  ZINC000523878927   -0.1300
     28 C28         0.2299    1.4137   48.7272 C.ar    1  ZINC000523878927   -0.0900
     29 C29        -5.8901    1.0733   51.6777 C.3     1  ZINC000523878927    0.1200
     30 C30       -11.1698   -0.4994   55.1564 C.3     1  ZINC000523878927   -0.1100
     31 H31       -10.6277   -3.1488   55.4986 H       1  ZINC000523878927    0.0500
     32 H32       -11.8168   -3.7836   54.3362 H       1  ZINC000523878927    0.0500
     33 H33       -10.4864   -2.7451   53.7708 H       1  ZINC000523878927    0.0600
     34 H34       -13.4714   -2.2420   53.2741 H       1  ZINC000523878927    0.0600
     35 H35       -13.4611   -0.5089   53.6798 H       1  ZINC000523878927    0.0600
     36 H36       -11.2371   -2.0095   52.2242 H       1  ZINC000523878927    0.0700
     37 H37       -12.4160   -0.9114   51.4675 H       1  ZINC000523878927    0.0600
     38 H38       -10.2735    0.2541   51.9150 H       1  ZINC000523878927    0.0600
     39 H39       -11.5937    0.9487   52.8861 H       1  ZINC000523878927    0.0600
     40 H40        -9.8779    1.8790   54.2672 H       1  ZINC000523878927    0.0700
     41 H41        -8.9463    0.8572   55.3880 H       1  ZINC000523878927    0.0700
     42 H42        -7.3951    0.4204   53.6006 H       1  ZINC000523878927    0.3900
     43 H43        -7.4570    2.3022   49.5169 H       1  ZINC000523878927    0.0800
     44 H44        -7.4245    3.7389   50.5845 H       1  ZINC000523878927    0.0800
     45 H45        -5.2386    3.1355   49.1100 H       1  ZINC000523878927    0.1000
     46 H46        -5.0262    3.6485   50.8177 H       1  ZINC000523878927    0.0800
     47 H47        -3.3361    1.2684   51.8725 H       1  ZINC000523878927    0.4000
     48 H48        -1.0824    1.6823   51.4266 H       1  ZINC000523878927    0.4100
     49 H49        -0.2347    4.3430   50.3542 H       1  ZINC000523878927    0.1400
     50 H50         1.5373    5.0348   48.7924 H       1  ZINC000523878927    0.1400
     51 H51         1.6300    1.0979   47.1445 H       1  ZINC000523878927    0.1400
     52 H52        -0.1372    0.3982   48.7081 H       1  ZINC000523878927    0.1500
     53 H53        -5.3988    1.2637   52.6319 H       1  ZINC000523878927    0.0700
     54 H54        -6.1481    0.0175   51.5953 H       1  ZINC000523878927    0.0800
     55 H55       -11.7920    0.3822   55.3114 H       1  ZINC000523878927    0.0700
     56 H56       -10.6132   -0.7161   56.0682 H       1  ZINC000523878927    0.0700
@<TRIPOS>BOND
     1     1     2    1
     2     1    31    1
     3     1    32    1
     4     1    33    1
     5     2     3    1
     6     2    30    1
     7     2     4    1
     8     4     5    1
     9     4    34    1
    10     4    35    1
    11     5     6    1
    12     5    36    1
    13     5    37    1
    14     6     7    1
    15     6    38    1
    16     6    39    1
    17     7     8    1
    18     7     9    1
    19     7    30    1
    20     9    10    1
    21     9    40    1
    22     9    41    1
    23    10    11   am
    24    10    42    1
    25    11    12    2
    26    11    13   am
    27    13    29    1
    28    13    14    1
    29    14    15    1
    30    14    43    1
    31    14    44    1
    32    15    16    1
    33    15    45    1
    34    15    46    1
    35    16    17    1
    36    16    18    1
    37    16    29    1
    38    18    19   am
    39    18    47    1
    40    19    20    2
    41    19    21   am
    42    21    22    1
    43    21    48    1
    44    22    28   ar
    45    22    23   ar
    46    23    24   ar
    47    23    49    1
    48    24    25   ar
    49    24    50    1
    50    25    26    1
    51    25    27   ar
    52    27    28   ar
    53    27    51    1
    54    28    52    1
    55    29    53    1
    56    29    54    1
    57    30    55    1
    58    30    56    1
@<TRIPOS>SUBSTRUCTURE
     1 ZINC000523878927        1 TEMP              0 ****  ****    0 ROOT


##########                                Name:    ZINC000163855860
##########                DOCK_Rotatable_Bonds:                   6
##########                         Heavy_Atoms:                  28
##########                    Molecular_Weight:             398.483
##########                DOCK_Rotatable_Bonds:                   6
##########                       Formal_Charge:          -0.0100004
##########                     HBond_Acceptors:                   7
##########                        HBond_Donors:                   1
##########                         Heavy_Atoms:                  28
##########                          Grid_Score:          -34.564770
##########                     Grid_vdw_energy:          -32.604721
##########                      Grid_es_energy:           -1.960050
##########           Internal_energy_repulsive:           15.925993

@<TRIPOS>MOLECULE
ZINC000163855860
 50 53 1 0 0
SMALL
USER_CHARGES


@<TRIPOS>ATOM
      1 C1         -9.8912   -0.1800   53.3766 C.3     1  ZINC000163855860   -0.1300
      2 C2         -9.6470    1.0598   54.1979 C.ar    1  ZINC000163855860   -0.0600
      3 C3         -8.5359    1.8504   53.9498 C.ar    1  ZINC000163855860    0.1400
      4 N4         -7.6390    1.4983   52.9349 N.am    1  ZINC000163855860   -0.6700
      5 C5         -7.7825    2.0164   51.6989 C.2     1  ZINC000163855860    0.5100
      6 O6         -8.6890    2.7879   51.4664 O.2     1  ZINC000163855860   -0.5100
      7 C7         -6.8167    1.6371   50.6061 C.3     1  ZINC000163855860   -0.1300
      8 C8         -5.5416    2.4721   50.7400 C.3     1  ZINC000163855860   -0.1100
      9 H9         -5.7726    3.5373   50.7460 H       1  ZINC000163855860    0.1100
     10 C10        -4.7525    2.0726   52.0077 C.3     1  ZINC000163855860    0.0600
     11 O11        -3.3526    2.2148   51.6246 O.3     1  ZINC000163855860   -0.3500
     12 C12        -3.2101    1.9654   50.3151 C.2     1  ZINC000163855860    0.4800
     13 O13        -2.1747    1.6541   49.7759 O.2     1  ZINC000163855860   -0.4500
     14 C14        -4.5405    2.1324   49.6135 C.3     1  ZINC000163855860   -0.1800
     15 C15        -8.3157    2.9962   54.7052 C.ar    1  ZINC000163855860   -0.1100
     16 C16        -9.1990    3.3489   55.7079 C.ar    1  ZINC000163855860   -0.1100
     17 C17       -10.3058    2.5656   55.9661 C.ar    1  ZINC000163855860   -0.1000
     18 C18       -10.5357    1.4128   55.2135 C.ar    1  ZINC000163855860   -0.1100
     19 C19       -11.7208    0.5722   55.4875 C.2     1  ZINC000163855860    0.5700
     20 O20       -12.6577    0.5717   54.7131 O.2     1  ZINC000163855860   -0.5300
     21 N21       -11.7623   -0.1934   56.5958 N.am    1  ZINC000163855860   -0.6100
     22 C22       -12.9314   -1.0367   56.8872 C.3     1  ZINC000163855860    0.1200
     23 C23       -12.4906   -2.5079   56.8345 C.3     1  ZINC000163855860   -0.0600
     24 C24       -11.1912   -2.6620   57.5959 C.2     1  ZINC000163855860   -0.1700
     25 C25       -10.3576   -1.6544   57.9166 C.2     1  ZINC000163855860   -0.1300
     26 C26        -9.2230   -2.0633   58.6102 C.2     1  ZINC000163855860   -0.1200
     27 C27        -9.1358   -3.3673   58.8530 C.2     1  ZINC000163855860   -0.2100
     28 S28       -10.5416   -4.1856   58.1885 S.3     1  ZINC000163855860    0.1100
     29 C29       -10.6430   -0.2029   57.5482 C.3     1  ZINC000163855860    0.1700
     30 H30        -9.4834   -1.0466   53.8970 H       1  ZINC000163855860    0.0700
     31 H31       -10.9631   -0.3144   53.2317 H       1  ZINC000163855860    0.0900
     32 H32        -9.4038   -0.0755   52.4073 H       1  ZINC000163855860    0.0700
     33 H33        -6.9139    0.8813   53.1209 H       1  ZINC000163855860    0.4100
     34 H34        -7.2744    1.8261   49.6350 H       1  ZINC000163855860    0.1100
     35 H35        -6.5688    0.5792   50.6913 H       1  ZINC000163855860    0.1100
     36 H36        -4.9693    1.0401   52.2814 H       1  ZINC000163855860    0.0800
     37 H37        -4.9915    2.7442   52.8323 H       1  ZINC000163855860    0.1200
     38 H38        -4.4894    2.9484   48.8926 H       1  ZINC000163855860    0.1200
     39 H39        -4.8272    1.2048   49.1180 H       1  ZINC000163855860    0.1200
     40 H40        -7.4516    3.6132   54.5076 H       1  ZINC000163855860    0.1500
     41 H41        -9.0229    4.2405   56.2913 H       1  ZINC000163855860    0.1300
     42 H42       -10.9937    2.8446   56.7505 H       1  ZINC000163855860    0.1300
     43 H43       -13.3134   -0.8022   57.8808 H       1  ZINC000163855860    0.0800
     44 H44       -13.7068   -0.8575   56.1423 H       1  ZINC000163855860    0.1000
     45 H45       -12.3434   -2.8094   55.7974 H       1  ZINC000163855860    0.0900
     46 H46       -13.2570   -3.1345   57.2909 H       1  ZINC000163855860    0.0900
     47 H47        -8.4624   -1.3666   58.9304 H       1  ZINC000163855860    0.1400
     48 H48        -8.3252   -3.8499   59.3788 H       1  ZINC000163855860    0.1700
     49 H49        -9.7612    0.2409   57.0860 H       1  ZINC000163855860    0.1000
     50 H50       -10.9137    0.3593   58.4419 H       1  ZINC000163855860    0.0900
@<TRIPOS>BOND
     1     1     2    1
     2     1    30    1
     3     1    31    1
     4     1    32    1
     5     2    18   ar
     6     2     3   ar
     7     3     4    1
     8     3    15   ar
     9     4     5   am
    10     4    33    1
    11     5     6    2
    12     5     7    1
    13     7     8    1
    14     7    34    1
    15     7    35    1
    16     8     9    1
    17     8    14    1
    18     8    10    1
    19    10    11    1
    20    10    36    1
    21    10    37    1
    22    11    12    1
    23    12    13    2
    24    12    14    1
    25    14    38    1
    26    14    39    1
    27    15    16   ar
    28    15    40    1
    29    16    17   ar
    30    16    41    1
    31    17    18   ar
    32    17    42    1
    33    18    19    1
    34    19    20    2
    35    19    21   am
    36    21    29    1
    37    21    22    1
    38    22    23    1
    39    22    43    1
    40    22    44    1
    41    23    24    1
    42    23    45    1
    43    23    46    1
    44    24    28    1
    45    24    25    2
    46    25    26    1
    47    25    29    1
    48    26    27    2
    49    26    47    1
    50    27    28    1
    51    27    48    1
    52    29    49    1
    53    29    50    1
@<TRIPOS>SUBSTRUCTURE
     1 ZINC000163855860        1 TEMP              0 ****  ****    0 ROOT


##########                                Name:    ZINC001400108193
##########                DOCK_Rotatable_Bonds:                   9
##########                         Heavy_Atoms:                  25
##########                    Molecular_Weight:              344.41
##########                DOCK_Rotatable_Bonds:                   9
##########                       Formal_Charge:           0.0200001
##########                     HBond_Acceptors:                   6
##########                        HBond_Donors:                   2
##########                         Heavy_Atoms:                  25
##########                          Grid_Score:          -34.543503
##########                     Grid_vdw_energy:          -34.302856
##########                      Grid_es_energy:           -0.240646
##########           Internal_energy_repulsive:            6.276474

@<TRIPOS>MOLECULE
ZINC001400108193
 49 50 1 0 0
SMALL
USER_CHARGES


@<TRIPOS>ATOM
      1 C1         -5.7600    1.5036   51.8691 C.3     1  ZINC001400108193   -0.0800
      2 C2         -7.0591    0.9654   52.4112 C.2     1  ZINC001400108193   -0.0100
      3 C3         -7.6837   -0.1406   51.9789 C.2     1  ZINC001400108193   -0.1600
      4 C4         -8.8991   -0.2642   52.7969 C.2     1  ZINC001400108193   -0.2300
      5 C5         -9.9266   -1.3173   52.7125 C.2     1  ZINC001400108193    0.5900
      6 O6         -9.8090   -2.2182   51.9039 O.2     1  ZINC001400108193   -0.5300
      7 N7        -10.9965   -1.2822   53.5313 N.am    1  ZINC001400108193   -0.7300
      8 C8        -12.0187   -2.3282   53.4462 C.3     1  ZINC001400108193    0.1100
      9 C9        -12.7528   -2.4341   54.7844 C.3     1  ZINC001400108193    0.1300
     10 H10       -13.0869   -1.4441   55.0948 H       1  ZINC001400108193    0.1000
     11 C11       -13.9640   -3.3561   54.6302 C.3     1  ZINC001400108193   -0.1600
     12 N12       -11.8468   -2.9832   55.7963 N.am    1  ZINC001400108193   -0.7300
     13 C13       -12.0985   -2.7843   57.1052 C.2     1  ZINC001400108193    0.5200
     14 O14       -13.0744   -2.1496   57.4455 O.2     1  ZINC001400108193   -0.5100
     15 C15       -11.1675   -3.3507   58.1462 C.3     1  ZINC001400108193    0.0700
     16 H16       -11.6952   -3.4397   59.0958 H       1  ZINC001400108193    0.1000
     17 C17       -10.6837   -4.7320   57.7002 C.3     1  ZINC001400108193   -0.1800
     18 O18       -10.0448   -2.4811   58.3050 O.3     1  ZINC001400108193   -0.2800
     19 C19        -9.9398   -1.8186   59.4869 C.ar    1  ZINC001400108193    0.1200
     20 C20        -9.0397   -2.2528   60.4492 C.ar    1  ZINC001400108193   -0.2100
     21 C21        -8.9345   -1.5773   61.6496 C.ar    1  ZINC001400108193   -0.0800
     22 C22        -9.7290   -0.4726   61.8946 C.ar    1  ZINC001400108193   -0.1200
     23 C23        -9.6166    0.2587   63.2075 C.3     1  ZINC001400108193   -0.1100
     24 C24       -10.6232   -0.0348   60.9350 C.ar    1  ZINC001400108193   -0.0800
     25 C25       -10.7321   -0.7067   59.7330 C.ar    1  ZINC001400108193   -0.1400
     26 C26        -8.8800    0.8030   53.6464 C.2     1  ZINC001400108193    0.0200
     27 O27        -7.7759    1.5159   53.4034 O.3     1  ZINC001400108193   -0.1700
     28 H28        -5.9660    2.1949   51.0519 H       1  ZINC001400108193    0.0900
     29 H29        -5.2247    2.0269   52.6614 H       1  ZINC001400108193    0.0800
     30 H30        -5.1498    0.6784   51.5019 H       1  ZINC001400108193    0.0900
     31 H31        -7.3597   -0.8047   51.1912 H       1  ZINC001400108193    0.1600
     32 H32       -11.0897   -0.5644   54.1771 H       1  ZINC001400108193    0.4000
     33 H33       -11.5443   -3.2821   53.2155 H       1  ZINC001400108193    0.0800
     34 H34       -12.7308   -2.0772   52.6601 H       1  ZINC001400108193    0.0900
     35 H35       -14.4869   -3.4315   55.5835 H       1  ZINC001400108193    0.0700
     36 H36       -14.6381   -2.9475   53.8773 H       1  ZINC001400108193    0.0700
     37 H37       -13.6298   -4.3461   54.3198 H       1  ZINC001400108193    0.0600
     38 H38       -11.0656   -3.4898   55.5241 H       1  ZINC001400108193    0.4000
     39 H39       -11.5399   -5.3953   57.5790 H       1  ZINC001400108193    0.0800
     40 H40       -10.1558   -4.6429   56.7506 H       1  ZINC001400108193    0.0800
     41 H41       -10.0102   -5.1417   58.4531 H       1  ZINC001400108193    0.0800
     42 H42        -8.4221   -3.1184   60.2601 H       1  ZINC001400108193    0.1300
     43 H43        -8.2342   -1.9151   62.3992 H       1  ZINC001400108193    0.1300
     44 H44        -8.8660    1.0444   63.1226 H       1  ZINC001400108193    0.0700
     45 H45       -10.5798    0.7021   63.4600 H       1  ZINC001400108193    0.0700
     46 H46        -9.3228   -0.4417   63.9894 H       1  ZINC001400108193    0.0700
     47 H47       -11.2398    0.8309   61.1271 H       1  ZINC001400108193    0.1300
     48 H48       -11.4333   -0.3665   58.9853 H       1  ZINC001400108193    0.1300
     49 H49        -9.6285    1.0315   54.3907 H       1  ZINC001400108193    0.2100
@<TRIPOS>BOND
     1     1     2    1
     2     1    28    1
     3     1    29    1
     4     1    30    1
     5     2    27    1
     6     2     3    2
     7     3     4    1
     8     3    31    1
     9     4     5    1
    10     4    26    2
    11     5     6    2
    12     5     7   am
    13     7     8    1
    14     7    32    1
    15     8     9    1
    16     8    33    1
    17     8    34    1
    18     9    10    1
    19     9    11    1
    20     9    12    1
    21    11    35    1
    22    11    36    1
    23    11    37    1
    24    12    13   am
    25    12    38    1
    26    13    14    2
    27    13    15    1
    28    15    16    1
    29    15    17    1
    30    15    18    1
    31    17    39    1
    32    17    40    1
    33    17    41    1
    34    18    19    1
    35    19    25   ar
    36    19    20   ar
    37    20    21   ar
    38    20    42    1
    39    21    22   ar
    40    21    43    1
    41    22    23    1
    42    22    24   ar
    43    23    44    1
    44    23    45    1
    45    23    46    1
    46    24    25   ar
    47    24    47    1
    48    25    48    1
    49    26    27    1
    50    26    49    1
@<TRIPOS>SUBSTRUCTURE
     1 ZINC001400108193        1 TEMP              0 ****  ****    0 ROOT


##########                                Name:    ZINC000482139334
##########                DOCK_Rotatable_Bonds:                   4
##########                         Heavy_Atoms:                  26
##########                    Molecular_Weight:             348.376
##########                DOCK_Rotatable_Bonds:                   4
##########                       Formal_Charge:           0.0300002
##########                     HBond_Acceptors:                   5
##########                        HBond_Donors:                   1
##########                         Heavy_Atoms:                  26
##########                          Grid_Score:          -34.534618
##########                     Grid_vdw_energy:          -31.527473
##########                      Grid_es_energy:           -3.007146
##########           Internal_energy_repulsive:            6.591833

@<TRIPOS>MOLECULE
ZINC000482139334
 43 47 1 0 0
SMALL
USER_CHARGES


@<TRIPOS>ATOM
      1 O1        -11.7153    0.5247   56.1007 O.2     1  ZINC000482139334   -0.4800
      2 C2        -10.8263    0.6863   56.9095 C.2     1  ZINC000482139334    0.5500
      3 N3         -9.5413    0.7063   56.5035 N.am    1  ZINC000482139334   -0.6100
      4 C4         -9.2355    0.5363   55.1622 C.2     1  ZINC000482139334    0.4300
      5 N5         -8.3493    1.2262   54.4911 N.2     1  ZINC000482139334   -0.4800
      6 C6         -8.3309    0.7733   53.2101 C.2     1  ZINC000482139334    0.0400
      7 C7         -7.4704    1.2780   52.1119 C.ar    1  ZINC000482139334   -0.0500
      8 C8         -7.3557    2.6478   51.8866 C.ar    1  ZINC000482139334   -0.0800
      9 C9         -6.5533    3.1122   50.8638 C.ar    1  ZINC000482139334   -0.1300
     10 C10        -5.8635    2.2210   50.0621 C.ar    1  ZINC000482139334   -0.0800
     11 C11        -5.9726    0.8593   50.2792 C.ar    1  ZINC000482139334   -0.1600
     12 C12        -6.7680    0.3824   51.3041 C.ar    1  ZINC000482139334    0.1300
     13 F13        -6.8743   -0.9477   51.5159 F       1  ZINC000482139334   -0.1200
     14 C14        -9.2424   -0.2240   53.1210 C.2     1  ZINC000482139334   -0.0600
     15 O15        -9.7961   -0.3667   54.3431 O.3     1  ZINC000482139334   -0.1800
     16 C16       -11.1587    0.8712   58.3678 C.3     1  ZINC000482139334   -0.1800
     17 H17       -11.1698    1.9025   58.7204 H       1  ZINC000482139334    0.1400
     18 C18       -12.1625   -0.1012   58.9932 C.3     1  ZINC000482139334   -0.1200
     19 C19       -10.6804   -0.2001   59.3401 C.3     1  ZINC000482139334   -0.0500
     20 C20        -9.8295   -1.3881   58.8612 C.3     1  ZINC000482139334   -0.0700
     21 C21        -9.3836   -2.0291   60.1942 C.3     1  ZINC000482139334   -0.0900
     22 C22        -9.4147   -0.9036   61.2068 C.ar    1  ZINC000482139334   -0.0800
     23 C23        -8.8341   -0.8086   62.4598 C.ar    1  ZINC000482139334   -0.1100
     24 C24        -9.0010    0.3329   63.2196 C.ar    1  ZINC000482139334   -0.1100
     25 C25        -9.7506    1.3848   62.7278 C.ar    1  ZINC000482139334   -0.1200
     26 C26       -10.3309    1.2926   61.4778 C.ar    1  ZINC000482139334   -0.1000
     27 C27       -10.1650    0.1499   60.7136 C.ar    1  ZINC000482139334   -0.0700
     28 H28        -8.8304    0.8396   57.1498 H       1  ZINC000482139334    0.4400
     29 H29        -7.8940    3.3456   52.5111 H       1  ZINC000482139334    0.1300
     30 H30        -6.4642    4.1743   50.6890 H       1  ZINC000482139334    0.1400
     31 H31        -5.2374    2.5898   49.2630 H       1  ZINC000482139334    0.1400
     32 H32        -5.4322    0.1679   49.6496 H       1  ZINC000482139334    0.1400
     33 H33        -9.4794   -0.7995   52.2383 H       1  ZINC000482139334    0.2200
     34 H34       -12.8334    0.2903   59.7579 H       1  ZINC000482139334    0.1200
     35 H35       -12.5824   -0.8746   58.3499 H       1  ZINC000482139334    0.1100
     36 H36       -10.4302   -2.0853   58.2772 H       1  ZINC000482139334    0.0800
     37 H37        -8.9680   -1.0429   58.2894 H       1  ZINC000482139334    0.0900
     38 H38       -10.0771   -2.8182   60.4847 H       1  ZINC000482139334    0.0800
     39 H39        -8.3732   -2.4274   60.1027 H       1  ZINC000482139334    0.0800
     40 H40        -8.2485   -1.6303   62.8450 H       1  ZINC000482139334    0.1200
     41 H41        -8.5465    0.4031   64.1968 H       1  ZINC000482139334    0.1300
     42 H42        -9.8828    2.2779   63.3206 H       1  ZINC000482139334    0.1300
     43 H43       -10.9168    2.1152   61.0949 H       1  ZINC000482139334    0.1200
@<TRIPOS>BOND
     1     1     2    2
     2     2     3   am
     3     2    16    1
     4     3     4    1
     5     3    28    1
     6     4    15    1
     7     4     5    2
     8     5     6    1
     9     6     7    1
    10     6    14    2
    11     7    12   ar
    12     7     8   ar
    13     8     9   ar
    14     8    29    1
    15     9    10   ar
    16     9    30    1
    17    10    11   ar
    18    10    31    1
    19    11    12   ar
    20    11    32    1
    21    12    13    1
    22    14    15    1
    23    14    33    1
    24    16    17    1
    25    16    19    1
    26    16    18    1
    27    18    19    1
    28    18    34    1
    29    18    35    1
    30    19    27    1
    31    19    20    1
    32    20    21    1
    33    20    36    1
    34    20    37    1
    35    21    22    1
    36    21    38    1
    37    21    39    1
    38    22    27   ar
    39    22    23   ar
    40    23    24   ar
    41    23    40    1
    42    24    25   ar
    43    24    41    1
    44    25    26   ar
    45    25    42    1
    46    26    27   ar
    47    26    43    1
@<TRIPOS>SUBSTRUCTURE
     1 ZINC000482139334        1 TEMP              0 ****  ****    0 ROOT


##########                                Name:    ZINC000171059239
##########                DOCK_Rotatable_Bonds:                   8
##########                         Heavy_Atoms:                  25
##########                    Molecular_Weight:              333.39
##########                DOCK_Rotatable_Bonds:                   8
##########                       Formal_Charge:         1.10269e-06
##########                     HBond_Acceptors:                   5
##########                        HBond_Donors:                   4
##########                         Heavy_Atoms:                  25
##########                          Grid_Score:          -34.532326
##########                     Grid_vdw_energy:          -29.591116
##########                      Grid_es_energy:           -4.941210
##########           Internal_energy_repulsive:            8.880511

@<TRIPOS>MOLECULE
ZINC000171059239
 44 46 1 0 0
SMALL
USER_CHARGES


@<TRIPOS>ATOM
      1 N1          0.7686    0.7644   48.4826 N.am    1  ZINC000171059239   -0.8500
      2 C2          0.9605    1.3384   49.6867 C.2     1  ZINC000171059239    0.5600
      3 O3          2.0418    1.2528   50.2354 O.2     1  ZINC000171059239   -0.5400
      4 C4         -0.1443    2.0719   50.3405 C.ar    1  ZINC000171059239   -0.1400
      5 C5          0.0201    2.5844   51.6281 C.ar    1  ZINC000171059239   -0.0900
      6 C6         -1.0147    3.2684   52.2324 C.ar    1  ZINC000171059239   -0.1200
      7 C7         -2.2133    3.4461   51.5648 C.ar    1  ZINC000171059239   -0.0800
      8 C8         -2.3830    2.9400   50.2881 C.ar    1  ZINC000171059239   -0.0900
      9 C9         -3.6923    3.1380   49.5687 C.3     1  ZINC000171059239   -0.0900
     10 C10        -4.4922    1.8341   49.5973 C.3     1  ZINC000171059239    0.1400
     11 N11        -4.9796    1.5900   50.9571 N.am    1  ZINC000171059239   -0.7400
     12 C12        -6.2097    1.0739   51.1496 C.2     1  ZINC000171059239    0.7000
     13 O13        -6.9143    0.8096   50.1946 O.2     1  ZINC000171059239   -0.5700
     14 N14        -6.6588    0.8508   52.4006 N.am    1  ZINC000171059239   -0.6800
     15 C15        -7.9331    0.3162   52.6000 C.ar    1  ZINC000171059239    0.1700
     16 C16        -8.8947    1.0282   53.3478 C.ar    1  ZINC000171059239   -0.0600
     17 C17        -8.6005    2.2816   53.9069 C.ar    1  ZINC000171059239   -0.1100
     18 C18        -9.5530    2.9408   54.6226 C.ar    1  ZINC000171059239   -0.1100
     19 C19       -10.8189    2.3891   54.8097 C.ar    1  ZINC000171059239   -0.1200
     20 C20       -11.1393    1.1760   54.2822 C.ar    1  ZINC000171059239   -0.1000
     21 C21       -10.1816    0.4665   53.5370 C.ar    1  ZINC000171059239   -0.0400
     22 C22       -10.4777   -0.7879   52.9775 C.ar    1  ZINC000171059239   -0.1200
     23 C23        -9.5307   -1.4528   52.2598 C.ar    1  ZINC000171059239   -0.0900
     24 C24        -8.2649   -0.9091   52.0633 C.ar    1  ZINC000171059239   -0.1200
     25 C25        -1.3543    2.2598   49.6702 C.ar    1  ZINC000171059239   -0.0500
     26 H26         1.4930    0.2821   48.0542 H       1  ZINC000171059239    0.4100
     27 H27        -0.0952    0.8303   48.0460 H       1  ZINC000171059239    0.4000
     28 H28         0.9551    2.4456   52.1505 H       1  ZINC000171059239    0.1300
     29 H29        -0.8889    3.6655   53.2288 H       1  ZINC000171059239    0.1300
     30 H30        -3.0203    3.9819   52.0424 H       1  ZINC000171059239    0.1300
     31 H31        -4.2626    3.9252   50.0621 H       1  ZINC000171059239    0.0800
     32 H32        -3.4991    3.4232   48.5345 H       1  ZINC000171059239    0.0800
     33 H33        -5.3397    1.9128   48.9163 H       1  ZINC000171059239    0.0700
     34 H34        -3.8521    1.0083   49.2870 H       1  ZINC000171059239    0.0700
     35 H35        -4.4170    1.7997   51.7190 H       1  ZINC000171059239    0.4000
     36 H36        -6.0966    1.0617   53.1625 H       1  ZINC000171059239    0.4100
     37 H37        -7.6233    2.7208   53.7705 H       1  ZINC000171059239    0.1200
     38 H38        -9.3240    3.9051   55.0516 H       1  ZINC000171059239    0.1200
     39 H39       -11.5564    2.9320   55.3821 H       1  ZINC000171059239    0.1200
     40 H40       -12.1244    0.7606   54.4357 H       1  ZINC000171059239    0.1300
     41 H41       -11.4556   -1.2245   53.1168 H       1  ZINC000171059239    0.1300
     42 H42        -9.7669   -2.4165   51.8333 H       1  ZINC000171059239    0.1300
     43 H43        -7.5317   -1.4568   51.4898 H       1  ZINC000171059239    0.1400
     44 H44        -1.4879    1.8656   48.6737 H       1  ZINC000171059239    0.1400
@<TRIPOS>BOND
     1     1     2   am
     2     1    26    1
     3     1    27    1
     4     2     3    2
     5     2     4    1
     6     4    25   ar
     7     4     5   ar
     8     5     6   ar
     9     5    28    1
    10     6     7   ar
    11     6    29    1
    12     7     8   ar
    13     7    30    1
    14     8     9    1
    15     8    25   ar
    16     9    10    1
    17     9    31    1
    18     9    32    1
    19    10    11    1
    20    10    33    1
    21    10    34    1
    22    11    12   am
    23    11    35    1
    24    12    13    2
    25    12    14   am
    26    14    15    1
    27    14    36    1
    28    15    24   ar
    29    15    16   ar
    30    16    21   ar
    31    16    17   ar
    32    17    18   ar
    33    17    37    1
    34    18    19   ar
    35    18    38    1
    36    19    20   ar
    37    19    39    1
    38    20    21   ar
    39    20    40    1
    40    21    22   ar
    41    22    23   ar
    42    22    41    1
    43    23    24   ar
    44    23    42    1
    45    24    43    1
    46    25    44    1
@<TRIPOS>SUBSTRUCTURE
     1 ZINC000171059239        1 TEMP              0 ****  ****    0 ROOT


##########                                Name:    ZINC000279331220
##########                DOCK_Rotatable_Bonds:                   9
##########                         Heavy_Atoms:                  24
##########                    Molecular_Weight:             328.411
##########                DOCK_Rotatable_Bonds:                   9
##########                       Formal_Charge:          -0.0100001
##########                     HBond_Acceptors:                   5
##########                        HBond_Donors:                   0
##########                         Heavy_Atoms:                  24
##########                          Grid_Score:          -34.508888
##########                     Grid_vdw_energy:          -34.640827
##########                      Grid_es_energy:            0.131938
##########           Internal_energy_repulsive:           19.849646

@<TRIPOS>MOLECULE
ZINC000279331220
 48 49 1 0 0
SMALL
USER_CHARGES


@<TRIPOS>ATOM
      1 C1        -10.5830    3.1299   55.5337 C.3     1  ZINC000279331220   -0.1500
      2 C2         -9.4861    2.5885   54.6147 C.3     1  ZINC000279331220    0.0500
      3 O3         -9.8503    1.2855   54.1548 O.3     1  ZINC000279331220   -0.3000
      4 C4         -8.9630    0.6455   53.3469 C.ar    1  ZINC000279331220    0.1000
      5 C5         -7.7932    1.2794   52.9611 C.ar    1  ZINC000279331220   -0.1700
      6 C6         -6.8919    0.6271   52.1399 C.ar    1  ZINC000279331220   -0.1200
      7 C7         -7.1552   -0.6571   51.7020 C.ar    1  ZINC000279331220   -0.1200
      8 C8         -8.3213   -1.2954   52.0831 C.ar    1  ZINC000279331220   -0.1700
      9 C9         -9.2255   -0.6500   52.9106 C.ar    1  ZINC000279331220    0.1000
     10 O10       -10.3727   -1.2763   53.2862 O.3     1  ZINC000279331220   -0.3000
     11 C11       -10.5815   -2.6000   52.7903 C.3     1  ZINC000279331220    0.0600
     12 C12       -11.8889   -3.1568   53.3572 C.3     1  ZINC000279331220   -0.1100
     13 C13       -11.7722   -3.2849   54.8773 C.3     1  ZINC000279331220   -0.1300
     14 C14       -12.9396   -4.0777   55.4058 C.2     1  ZINC000279331220    0.5200
     15 O15       -13.8233   -4.4303   54.6538 O.2     1  ZINC000279331220   -0.5200
     16 N16       -13.0018   -4.3951   56.7142 N.am    1  ZINC000279331220   -0.5700
     17 C17       -14.1359   -5.1674   57.2275 C.3     1  ZINC000279331220    0.0800
     18 C18       -11.9868   -3.9884   57.5791 C.ar    1  ZINC000279331220    0.3400
     19 N19       -10.8972   -4.7288   57.7054 N.ar    1  ZINC000279331220   -0.4800
     20 C20        -9.9135   -4.3804   58.5125 C.ar    1  ZINC000279331220    0.1100
     21 C21        -9.9873   -3.2215   59.2595 C.ar    1  ZINC000279331220   -0.1600
     22 C22       -11.1139   -2.4167   59.1558 C.ar    1  ZINC000279331220   -0.0700
     23 C23       -12.1263   -2.8057   58.2967 C.ar    1  ZINC000279331220   -0.1200
     24 C24       -13.3682   -1.9650   58.1495 C.3     1  ZINC000279331220   -0.1100
     25 H25       -10.3052    4.1238   55.8845 H       1  ZINC000279331220    0.0800
     26 H26       -11.5221    3.1881   54.9834 H       1  ZINC000279331220    0.0700
     27 H27       -10.7031    2.4635   56.3879 H       1  ZINC000279331220    0.0700
     28 H28        -9.3660    3.2548   53.7605 H       1  ZINC000279331220    0.0600
     29 H29        -8.5469    2.5302   55.1649 H       1  ZINC000279331220    0.0600
     30 H30        -7.5854    2.2831   53.3013 H       1  ZINC000279331220    0.1300
     31 H31        -5.9802    1.1223   51.8399 H       1  ZINC000279331220    0.1300
     32 H32        -6.4488   -1.1631   51.0605 H       1  ZINC000279331220    0.1300
     33 H33        -8.5249   -2.2987   51.7390 H       1  ZINC000279331220    0.1300
     34 H34       -10.6386   -2.5756   51.7020 H       1  ZINC000279331220    0.0600
     35 H35        -9.7521   -3.2377   53.0963 H       1  ZINC000279331220    0.0600
     36 H36       -12.7084   -2.4815   53.1113 H       1  ZINC000279331220    0.0800
     37 H37       -12.0842   -4.1378   52.9239 H       1  ZINC000279331220    0.0800
     38 H38       -10.8426   -3.7955   55.1286 H       1  ZINC000279331220    0.1000
     39 H39       -11.7741   -2.2918   55.3267 H       1  ZINC000279331220    0.1000
     40 H40       -13.9469   -6.2310   57.0818 H       1  ZINC000279331220    0.0700
     41 H41       -14.2630   -4.9634   58.2907 H       1  ZINC000279331220    0.0800
     42 H42       -15.0415   -4.8826   56.6920 H       1  ZINC000279331220    0.0800
     43 H43        -9.0394   -5.0099   58.5903 H       1  ZINC000279331220    0.1600
     44 H44        -9.1774   -2.9443   59.9180 H       1  ZINC000279331220    0.1400
     45 H45       -11.1960   -1.5052   59.7293 H       1  ZINC000279331220    0.1400
     46 H46       -13.2569   -1.2990   57.2938 H       1  ZINC000279331220    0.0800
     47 H47       -14.2302   -2.6140   57.9950 H       1  ZINC000279331220    0.0700
     48 H48       -13.5159   -1.3737   59.0533 H       1  ZINC000279331220    0.0700
@<TRIPOS>BOND
     1     1     2    1
     2     1    25    1
     3     1    26    1
     4     1    27    1
     5     2     3    1
     6     2    28    1
     7     2    29    1
     8     3     4    1
     9     4     9   ar
    10     4     5   ar
    11     5     6   ar
    12     5    30    1
    13     6     7   ar
    14     6    31    1
    15     7     8   ar
    16     7    32    1
    17     8     9   ar
    18     8    33    1
    19     9    10    1
    20    10    11    1
    21    11    12    1
    22    11    34    1
    23    11    35    1
    24    12    13    1
    25    12    36    1
    26    12    37    1
    27    13    14    1
    28    13    38    1
    29    13    39    1
    30    14    15    2
    31    14    16   am
    32    16    17    1
    33    16    18    1
    34    17    40    1
    35    17    41    1
    36    17    42    1
    37    18    23   ar
    38    18    19   ar
    39    19    20   ar
    40    20    21   ar
    41    20    43    1
    42    21    22   ar
    43    21    44    1
    44    22    23   ar
    45    22    45    1
    46    23    24    1
    47    24    46    1
    48    24    47    1
    49    24    48    1
@<TRIPOS>SUBSTRUCTURE
     1 ZINC000279331220        1 TEMP              0 ****  ****    0 ROOT


##########                                Name:    ZINC000533037883
##########                DOCK_Rotatable_Bonds:                   7
##########                         Heavy_Atoms:                  27
##########                    Molecular_Weight:             368.479
##########                DOCK_Rotatable_Bonds:                   7
##########                       Formal_Charge:          0.00999947
##########                     HBond_Acceptors:                   6
##########                        HBond_Donors:                   1
##########                         Heavy_Atoms:                  27
##########                          Grid_Score:          -34.485374
##########                     Grid_vdw_energy:          -33.513969
##########                      Grid_es_energy:           -0.971407
##########           Internal_energy_repulsive:           12.379221

@<TRIPOS>MOLECULE
ZINC000533037883
 55 58 1 0 0
SMALL
USER_CHARGES


@<TRIPOS>ATOM
      1 O1        -10.3247   -4.3320   57.8140 O.2     1  ZINC000533037883   -0.5900
      2 C2        -10.9517   -3.2988   57.9472 C.2     1  ZINC000533037883    0.7100
      3 N3        -11.7346   -2.8516   56.9453 N.am    1  ZINC000533037883   -0.7500
      4 C4        -11.8254   -3.6074   55.6936 C.3     1  ZINC000533037883    0.1400
      5 C5        -12.3910   -2.7066   54.5939 C.3     1  ZINC000533037883   -0.0500
      6 C6        -11.2578   -2.1292   53.7853 C.2     1  ZINC000533037883   -0.2300
      7 C7        -10.6461   -0.9426   54.0062 C.2     1  ZINC000533037883    0.0600
      8 N8         -9.6855   -0.7936   53.0663 N.pl3   1  ZINC000533037883   -0.3200
      9 C9         -8.8182    0.3004   52.9390 C.ar    1  ZINC000533037883    0.1600
     10 C10        -7.7050    0.2132   52.1139 C.ar    1  ZINC000533037883   -0.1400
     11 C11        -6.8523    1.2928   51.9906 C.ar    1  ZINC000533037883   -0.0900
     12 C12        -7.1062    2.4594   52.6882 C.ar    1  ZINC000533037883   -0.1300
     13 C13        -8.2142    2.5492   53.5106 C.ar    1  ZINC000533037883   -0.0900
     14 C14        -9.0739    1.4752   53.6332 C.ar    1  ZINC000533037883   -0.1200
     15 N15        -9.7099   -1.9265   52.2426 N.2     1  ZINC000533037883   -0.2900
     16 C16       -10.6486   -2.7283   52.6773 C.2     1  ZINC000533037883    0.0700
     17 N17       -10.8681   -2.6035   59.0987 N.am    1  ZINC000533037883   -0.6300
     18 C18       -10.0189   -3.0782   60.1997 C.3     1  ZINC000533037883    0.1100
     19 C19        -9.0674   -1.9499   60.6101 C.3     1  ZINC000533037883   -0.1400
     20 C20        -9.8811   -0.6962   60.9394 C.3     1  ZINC000533037883   -0.1100
     21 C21       -10.6550   -0.2476   59.6977 C.3     1  ZINC000533037883   -0.0900
     22 H22        -9.9559   -0.0482   58.8856 H       1  ZINC000533037883    0.0800
     23 C23       -11.4417    1.0249   60.0184 C.3     1  ZINC000533037883   -0.1200
     24 H24       -12.1529    0.8463   60.8249 H       1  ZINC000533037883    0.0900
     25 C25       -10.4822    2.1925   60.3760 C.3     1  ZINC000533037883   -0.1500
     26 C26       -11.3331    3.4143   59.9469 C.3     1  ZINC000533037883    0.0500
     27 O27       -12.0324    2.9885   58.7666 O.3     1  ZINC000533037883   -0.3900
     28 C28       -12.1602    1.5583   58.7604 C.3     1  ZINC000533037883    0.0500
     29 C29       -11.6198   -1.3534   59.2747 C.3     1  ZINC000533037883    0.1300
     30 H30       -12.2378   -2.0294   57.0530 H       1  ZINC000533037883    0.4000
     31 H31       -10.8329   -3.9535   55.4053 H       1  ZINC000533037883    0.0700
     32 H32       -12.4828   -4.4656   55.8343 H       1  ZINC000533037883    0.0700
     33 H33       -13.0404   -3.2918   53.9429 H       1  ZINC000533037883    0.0800
     34 H34       -12.9639   -1.8971   55.0461 H       1  ZINC000533037883    0.0800
     35 H35       -10.8830   -0.2404   54.7919 H       1  ZINC000533037883    0.1800
     36 H36        -7.5057   -0.6979   51.5694 H       1  ZINC000533037883    0.1300
     37 H37        -5.9861    1.2255   51.3489 H       1  ZINC000533037883    0.1300
     38 H38        -6.4377    3.3019   52.5906 H       1  ZINC000533037883    0.1300
     39 H39        -8.4099    3.4617   54.0542 H       1  ZINC000533037883    0.1300
     40 H40        -9.9392    1.5461   54.2755 H       1  ZINC000533037883    0.1400
     41 H41       -10.9116   -3.6848   52.2505 H       1  ZINC000533037883    0.1900
     42 H42       -10.6431   -3.3567   61.0488 H       1  ZINC000533037883    0.0700
     43 H43        -9.4411   -3.9415   59.8696 H       1  ZINC000533037883    0.0800
     44 H44        -8.4984   -2.2552   61.4883 H       1  ZINC000533037883    0.0800
     45 H45        -8.3832   -1.7344   59.7895 H       1  ZINC000533037883    0.0700
     46 H46       -10.5824   -0.9193   61.7435 H       1  ZINC000533037883    0.0700
     47 H47        -9.2081    0.1008   61.2555 H       1  ZINC000533037883    0.0700
     48 H48       -10.2731    2.2156   61.4454 H       1  ZINC000533037883    0.0800
     49 H49        -9.5597    2.1339   59.7984 H       1  ZINC000533037883    0.0800
     50 H50       -12.0417    3.6765   60.7325 H       1  ZINC000533037883    0.0600
     51 H51       -10.6884    4.2631   59.7190 H       1  ZINC000533037883    0.0900
     52 H52       -11.6888    1.1488   57.8670 H       1  ZINC000533037883    0.0700
     53 H53       -13.2141    1.2812   58.7839 H       1  ZINC000533037883    0.0700
     54 H54       -12.1005   -1.0793   58.3356 H       1  ZINC000533037883    0.1000
     55 H55       -12.3758   -1.4941   60.0472 H       1  ZINC000533037883    0.0700
@<TRIPOS>BOND
     1     1     2    2
     2     2     3   am
     3     2    17   am
     4     3     4    1
     5     3    30    1
     6     4     5    1
     7     4    31    1
     8     4    32    1
     9     5     6    1
    10     5    33    1
    11     5    34    1
    12     6    16    1
    13     6     7    2
    14     7     8    1
    15     7    35    1
    16     8     9    1
    17     8    15    1
    18     9    14   ar
    19     9    10   ar
    20    10    11   ar
    21    10    36    1
    22    11    12   ar
    23    11    37    1
    24    12    13   ar
    25    12    38    1
    26    13    14   ar
    27    13    39    1
    28    14    40    1
    29    15    16    2
    30    16    41    1
    31    17    29    1
    32    17    18    1
    33    18    19    1
    34    18    42    1
    35    18    43    1
    36    19    20    1
    37    19    44    1
    38    19    45    1
    39    20    21    1
    40    20    46    1
    41    20    47    1
    42    21    22    1
    43    21    23    1
    44    21    29    1
    45    23    24    1
    46    23    28    1
    47    23    25    1
    48    25    26    1
    49    25    48    1
    50    25    49    1
    51    26    27    1
    52    26    50    1
    53    26    51    1
    54    27    28    1
    55    28    52    1
    56    28    53    1
    57    29    54    1
    58    29    55    1
@<TRIPOS>SUBSTRUCTURE
     1 ZINC000533037883        1 TEMP              0 ****  ****    0 ROOT


##########                                Name:    ZINC000979274057
##########                DOCK_Rotatable_Bonds:                   6
##########                         Heavy_Atoms:                  24
##########                    Molecular_Weight:              330.39
##########                DOCK_Rotatable_Bonds:                   6
##########                       Formal_Charge:          0.00999946
##########                     HBond_Acceptors:                   8
##########                        HBond_Donors:                   1
##########                         Heavy_Atoms:                  24
##########                          Grid_Score:          -34.450691
##########                     Grid_vdw_energy:          -32.933407
##########                      Grid_es_energy:           -1.517286
##########           Internal_energy_repulsive:           13.732744

@<TRIPOS>MOLECULE
ZINC000979274057
 46 48 1 0 0
SMALL
USER_CHARGES


@<TRIPOS>ATOM
      1 C1         -8.7853    2.9942   52.3428 C.3     1  ZINC000979274057   -0.1400
      2 C2         -7.9091    1.7557   52.5403 C.3     1  ZINC000979274057    0.1000
      3 H3         -6.9351    2.0574   52.9257 H       1  ZINC000979274057    0.0600
      4 N4         -7.7351    1.0686   51.2536 N.3     1  ZINC000979274057   -0.6700
      5 C5         -6.4970    0.2781   51.2422 C.3     1  ZINC000979274057    0.1300
      6 C6         -5.3684    1.1198   50.7048 C.ar    1  ZINC000979274057    0.3200
      7 N7         -5.4665    2.4331   50.7573 N.ar    1  ZINC000979274057   -0.5200
      8 C8         -4.4956    3.2045   50.2951 C.ar    1  ZINC000979274057    0.1500
      9 C9         -3.3660    2.6134   49.7513 C.ar    1  ZINC000979274057   -0.2300
     10 C10        -3.2994    1.2296   49.7136 C.ar    1  ZINC000979274057    0.1500
     11 N11        -4.3073    0.5231   50.1997 N.ar    1  ZINC000979274057   -0.5000
     12 C12        -8.5810    0.8092   53.5371 C.3     1  ZINC000979274057    0.0800
     13 H13        -7.8447    0.1041   53.9227 H       1  ZINC000979274057    0.0700
     14 C14        -9.7067    0.0412   52.8350 C.3     1  ZINC000979274057    0.0800
     15 N15       -10.4542   -0.7174   53.8503 N.am    1  ZINC000979274057   -0.6000
     16 C16       -10.7038   -2.0321   53.6897 C.2     1  ZINC000979274057    0.6100
     17 O17       -10.3096   -2.6087   52.6941 O.2     1  ZINC000979274057   -0.5400
     18 C18       -11.4541   -2.7708   54.7202 C.2     1  ZINC000979274057   -0.0600
     19 C19       -12.8107   -2.8895   54.8003 C.2     1  ZINC000979274057    0.0400
     20 N20       -13.0751   -3.6472   55.8906 N.pl3   1  ZINC000979274057   -0.4600
     21 C21       -14.4033   -4.0378   56.3697 C.3     1  ZINC000979274057    0.0700
     22 C22       -11.8879   -3.9807   56.4604 C.2     1  ZINC000979274057    0.1900
     23 N23       -10.9210   -3.4624   55.7598 N.2     1  ZINC000979274057   -0.4600
     24 C24       -10.9210    0.0015   55.0464 C.3     1  ZINC000979274057    0.0500
     25 C25        -9.7361    0.7715   55.6407 C.3     1  ZINC000979274057    0.0500
     26 O26        -9.1297    1.5661   54.6187 O.3     1  ZINC000979274057   -0.3600
     27 H27        -8.3066    3.6685   51.6326 H       1  ZINC000979274057    0.0600
     28 H28        -9.7592    2.6925   51.9574 H       1  ZINC000979274057    0.0700
     29 H29        -8.9145    3.5041   53.2975 H       1  ZINC000979274057    0.0600
     30 H30        -8.5347    0.4911   51.0410 H       1  ZINC000979274057    0.3500
     31 H31        -6.2605   -0.0414   52.2572 H       1  ZINC000979274057    0.1000
     32 H32        -6.6310   -0.5979   50.6076 H       1  ZINC000979274057    0.0600
     33 H33        -4.5824    4.2800   50.3408 H       1  ZINC000979274057    0.1700
     34 H34        -2.5574    3.2168   49.3658 H       1  ZINC000979274057    0.1500
     35 H35        -2.4349    0.7345   49.2967 H       1  ZINC000979274057    0.1700
     36 H36       -10.3745    0.7435   52.3360 H       1  ZINC000979274057    0.0700
     37 H37        -9.2816   -0.6454   52.1029 H       1  ZINC000979274057    0.1000
     38 H38       -13.5351   -2.4609   54.1236 H       1  ZINC000979274057    0.1900
     39 H39       -14.6925   -4.9825   55.9091 H       1  ZINC000979274057    0.0800
     40 H40       -14.3790   -4.1542   57.4532 H       1  ZINC000979274057    0.0900
     41 H41       -15.1268   -3.2673   56.1032 H       1  ZINC000979274057    0.0900
     42 H42       -11.7659   -4.5823   57.3490 H       1  ZINC000979274057    0.2100
     43 H43       -11.7111    0.6998   54.7701 H       1  ZINC000979274057    0.0700
     44 H44       -11.3000   -0.7113   55.7787 H       1  ZINC000979274057    0.1500
     45 H45       -10.0885    1.4186   56.4440 H       1  ZINC000979274057    0.1100
     46 H46        -9.0045    0.0662   56.0348 H       1  ZINC000979274057    0.0500
@<TRIPOS>BOND
     1     1     2    1
     2     1    27    1
     3     1    28    1
     4     1    29    1
     5     2     3    1
     6     2     4    1
     7     2    12    1
     8     4     5    1
     9     4    30    1
    10     5     6    1
    11     5    31    1
    12     5    32    1
    13     6    11   ar
    14     6     7   ar
    15     7     8   ar
    16     8     9   ar
    17     8    33    1
    18     9    10   ar
    19     9    34    1
    20    10    11   ar
    21    10    35    1
    22    12    13    1
    23    12    26    1
    24    12    14    1
    25    14    15    1
    26    14    36    1
    27    14    37    1
    28    15    16   am
    29    15    24    1
    30    16    17    2
    31    16    18    1
    32    18    23    1
    33    18    19    2
    34    19    20    1
    35    19    38    1
    36    20    21    1
    37    20    22    1
    38    21    39    1
    39    21    40    1
    40    21    41    1
    41    22    23    2
    42    22    42    1
    43    24    25    1
    44    24    43    1
    45    24    44    1
    46    25    26    1
    47    25    45    1
    48    25    46    1
@<TRIPOS>SUBSTRUCTURE
     1 ZINC000979274057        1 TEMP              0 ****  ****    0 ROOT


##########                                Name:    ZINC000469459940
##########                DOCK_Rotatable_Bonds:                   7
##########                         Heavy_Atoms:                  24
##########                    Molecular_Weight:             414.295
##########                DOCK_Rotatable_Bonds:                   7
##########                       Formal_Charge:          -0.0200002
##########                     HBond_Acceptors:                   6
##########                        HBond_Donors:                   1
##########                         Heavy_Atoms:                  24
##########                          Grid_Score:          -34.406921
##########                     Grid_vdw_energy:          -34.896900
##########                      Grid_es_energy:            0.489979
##########           Internal_energy_repulsive:            7.803211

@<TRIPOS>MOLECULE
ZINC000469459940
 41 42 1 0 0
SMALL
USER_CHARGES


@<TRIPOS>ATOM
      1 C1         -0.1044    2.9806   50.2897 C.3     1  ZINC000469459940   -0.1600
      2 C2         -1.4168    2.2309   50.5275 C.3     1  ZINC000469459940   -0.1200
      3 C3         -2.5393    3.2375   50.7876 C.3     1  ZINC000469459940   -0.1200
      4 C4         -3.7424    2.5139   51.3957 C.3     1  ZINC000469459940   -0.6000
      5 S5         -4.5607    1.5212   50.1168 S.o2    1  ZINC000469459940    2.4900
      6 O6         -4.9890    2.3468   49.0426 O.2     1  ZINC000469459940   -0.9300
      7 O7         -3.8359    0.3229   49.8759 O.2     1  ZINC000469459940   -0.9300
      8 C8         -6.0577    0.9791   50.8718 C.ar    1  ZINC000469459940   -0.6400
      9 C9         -6.8877    1.8961   51.4918 C.ar    1  ZINC000469459940   -0.0300
     10 C10        -8.0610    1.4783   52.0851 C.ar    1  ZINC000469459940   -0.0800
     11 C11        -8.4102    0.1271   52.0586 C.ar    1  ZINC000469459940   -0.0900
     12 C12        -9.6660   -0.3277   52.6918 C.2     1  ZINC000469459940    0.5600
     13 O13       -10.2207    0.3744   53.5147 O.2     1  ZINC000469459940   -0.5000
     14 N14       -10.1959   -1.5209   52.3570 N.am    1  ZINC000469459940   -0.6700
     15 C15       -11.3843   -1.9512   52.9563 C.ar    1  ZINC000469459940    0.1900
     16 C16       -12.5922   -1.8091   52.2859 C.ar    1  ZINC000469459940   -0.1500
     17 C17       -13.7651   -2.2344   52.8790 C.ar    1  ZINC000469459940   -0.0400
     18 C18       -13.7384   -2.8016   54.1401 C.ar    1  ZINC000469459940   -0.1500
     19 Br19      -15.3463   -3.3826   54.9482 Br      1  ZINC000469459940   -0.0200
     20 C20       -12.5348   -2.9452   54.8123 C.ar    1  ZINC000469459940    0.1500
     21 F21       -12.5111   -3.4994   56.0441 F       1  ZINC000469459940   -0.1200
     22 C22       -11.3573   -2.5263   54.2200 C.ar    1  ZINC000469459940   -0.1500
     23 C23        -7.5684   -0.7928   51.4310 C.ar    1  ZINC000469459940   -0.1100
     24 C24        -6.4006   -0.3609   50.8370 C.ar    1  ZINC000469459940   -0.0300
     25 H25        -0.2120    3.6363   49.4255 H       1  ZINC000469459940    0.0600
     26 H26         0.1383    3.5763   51.1697 H       1  ZINC000469459940    0.0600
     27 H27         0.6953    2.2636   50.1045 H       1  ZINC000469459940    0.0600
     28 H28        -1.6595    1.6352   49.6476 H       1  ZINC000469459940    0.0700
     29 H29        -1.3092    1.5754   51.3917 H       1  ZINC000469459940    0.0700
     30 H30        -2.1879    4.0029   51.4795 H       1  ZINC000469459940    0.0800
     31 H31        -2.8333    3.7048   49.8477 H       1  ZINC000469459940    0.0800
     32 H32        -3.4051    1.8619   52.2014 H       1  ZINC000469459940    0.1400
     33 H33        -4.4453    3.2469   51.7916 H       1  ZINC000469459940    0.1400
     34 H34        -6.6164    2.9413   51.5115 H       1  ZINC000469459940    0.1500
     35 H35        -8.7077    2.1950   52.5693 H       1  ZINC000469459940    0.1500
     36 H36        -9.7532   -2.0811   51.7005 H       1  ZINC000469459940    0.4200
     37 H37       -12.6147   -1.3658   51.3014 H       1  ZINC000469459940    0.1500
     38 H38       -14.7043   -2.1238   52.3573 H       1  ZINC000469459940    0.1500
     39 H39       -10.4192   -2.6381   54.7433 H       1  ZINC000469459940    0.1600
     40 H40        -7.8326   -1.8397   51.4073 H       1  ZINC000469459940    0.1400
     41 H41        -5.7484   -1.0716   50.3512 H       1  ZINC000469459940    0.1500
@<TRIPOS>BOND
     1     1     2    1
     2     1    25    1
     3     1    26    1
     4     1    27    1
     5     2     3    1
     6     2    28    1
     7     2    29    1
     8     3     4    1
     9     3    30    1
    10     3    31    1
    11     4     5    1
    12     4    32    1
    13     4    33    1
    14     5     6    2
    15     5     7    2
    16     5     8    1
    17     8    24   ar
    18     8     9   ar
    19     9    10   ar
    20     9    34    1
    21    10    11   ar
    22    10    35    1
    23    11    12    1
    24    11    23   ar
    25    12    13    2
    26    12    14   am
    27    14    15    1
    28    14    36    1
    29    15    22   ar
    30    15    16   ar
    31    16    17   ar
    32    16    37    1
    33    17    18   ar
    34    17    38    1
    35    18    19    1
    36    18    20   ar
    37    20    21    1
    38    20    22   ar
    39    22    39    1
    40    23    24   ar
    41    23    40    1
    42    24    41    1
@<TRIPOS>SUBSTRUCTURE
     1 ZINC000469459940        1 TEMP              0 ****  ****    0 ROOT


##########                                Name:     oleObject15.pdb
##########                DOCK_Rotatable_Bonds:                   9
##########                         Heavy_Atoms:                  29
##########                    Molecular_Weight:             395.545
##########                DOCK_Rotatable_Bonds:                   9
##########                       Formal_Charge:         0.000700183
##########                     HBond_Acceptors:                   5
##########                        HBond_Donors:                   1
##########                         Heavy_Atoms:                  29
##########                          Grid_Score:          -34.362450
##########                     Grid_vdw_energy:          -33.006748
##########                      Grid_es_energy:           -1.355701
##########           Internal_energy_repulsive:            8.904450

@<TRIPOS>MOLECULE
oleObject15.pdb
 62 64 1 0 0
SMALL
NO_CHARGES


@<TRIPOS>ATOM
      1 O         -10.4911   -0.9501   61.2285 O.3     1  UNL        -0.3745
      2 C          -9.3102   -1.2480   60.4499 C.3     1  UNL         0.0600
      3 C          -9.5642   -2.5441   59.6457 C.3     1  UNL         0.0217
      4 N         -10.8390   -2.5611   58.8909 N.4     1  UNL        -0.3010
      5 C         -11.0899   -1.3520   58.0734 C.3     1  UNL        -0.0010
      6 C         -12.4897   -1.3796   57.4219 C.3     1  UNL        -0.0289
      7 C         -12.7467   -2.6680   56.6038 C.3     1  UNL         0.0382
      8 C         -12.3928   -3.9154   57.4523 C.3     1  UNL        -0.0289
      9 C         -11.0086   -3.8206   58.1358 C.3     1  UNL        -0.0010
     10 C         -11.9974   -2.6450   55.2485 C.2     1  UNL         0.2156
     11 O         -11.0230   -3.3446   55.0391 O.2     1  UNL        -0.2774
     12 N         -12.4638   -1.8426   54.2150 N.am    1  UNL        -0.3025
     13 C         -11.8901   -1.6891   52.8648 C.3     1  UNL         0.0900
     14 C         -12.7881   -0.8875   51.9243 C.ar    1  UNL        -0.0217
     15 C         -13.0738   -1.3460   50.6223 C.ar    1  UNL        -0.0568
     16 C         -13.8914   -0.5904   49.7661 C.ar    1  UNL        -0.0619
     17 C         -14.4327    0.6279   50.2051 C.ar    1  UNL        -0.0622
     18 C         -14.1577    1.0885   51.5022 C.ar    1  UNL        -0.0619
     19 C         -13.3404    0.3326   52.3584 C.ar    1  UNL        -0.0568
     20 C         -10.4874   -1.0902   52.9128 C.ar    1  UNL         0.0652
     21 C         -10.1508   -0.0620   53.8174 C.ar    1  UNL        -0.0383
     22 C          -8.8452    0.4543   53.8075 C.ar    1  UNL        -0.0588
     23 C          -7.9216   -0.0742   52.8925 C.ar    1  UNL        -0.0438
     24 C          -8.3411   -1.0970   52.0247 C.ar    1  UNL         0.0272
     25 N          -9.5946   -1.5940   52.0327 N.ar    1  UNL        -0.2590
     26 C         -10.5816    0.3086   61.9373 C.3     1  UNL         0.0599
     27 C         -10.4660    1.4812   60.9313 C.3     1  UNL        -0.0364
     28 C         -11.9853    0.3039   62.5838 C.3     1  UNL        -0.0364
     29 C          -9.4896    0.3807   63.0338 C.3     1  UNL        -0.0364
     30 H          -8.4480   -1.4055   61.1091 H       1  UNL         0.0581
     31 H          -9.0677   -0.4308   59.7620 H       1  UNL         0.0581
     32 H          -9.5550   -3.3818   60.3548 H       1  UNL         0.0455
     33 H          -8.7269   -2.6948   58.9524 H       1  UNL         0.0455
     34 H         -10.3250   -1.2676   57.2908 H       1  UNL         0.0431
     35 H         -11.0326   -0.4507   58.6947 H       1  UNL         0.0431
     36 H         -12.6185   -0.4939   56.7891 H       1  UNL         0.0288
     37 H         -13.2437   -1.3083   58.2166 H       1  UNL         0.0288
     38 H         -13.8221   -2.7268   56.4167 H       1  UNL         0.0402
     39 H         -12.4415   -4.8191   56.8317 H       1  UNL         0.0288
     40 H         -13.1531   -4.0326   58.2355 H       1  UNL         0.0288
     41 H         -10.2208   -3.9035   57.3767 H       1  UNL         0.0431
     42 H         -10.8986   -4.6764   58.8142 H       1  UNL         0.0431
     43 H         -13.3495   -1.3838   54.3853 H       1  UNL         0.1504
     44 H         -11.7811   -2.6999   52.4517 H       1  UNL         0.0624
     45 H         -12.6552   -2.2833   50.2676 H       1  UNL         0.0626
     46 H         -14.1030   -0.9483   48.7626 H       1  UNL         0.0623
     47 H         -15.0646    1.2127   49.5427 H       1  UNL         0.0623
     48 H         -14.5779    2.0300   51.8445 H       1  UNL         0.0623
     49 H         -13.1347    0.6973   53.3609 H       1  UNL         0.0626
     50 H         -10.8857    0.3296   54.5141 H       1  UNL         0.0643
     51 H          -8.5566    1.2462   54.4927 H       1  UNL         0.0624
     52 H          -6.9026    0.2996   52.8548 H       1  UNL         0.0639
     53 H          -7.6531   -1.5315   51.3005 H       1  UNL         0.0840
     54 H         -11.1582    1.3434   60.0907 H       1  UNL         0.0260
     55 H          -9.4499    1.5691   60.5282 H       1  UNL         0.0260
     56 H         -10.7098    2.4343   61.4173 H       1  UNL         0.0260
     57 H         -12.7676    0.2195   61.8184 H       1  UNL         0.0260
     58 H         -12.1623    1.2277   63.1492 H       1  UNL         0.0260
     59 H         -12.0949   -0.5424   63.2740 H       1  UNL         0.0260
     60 H          -8.4865    0.4648   62.5977 H       1  UNL         0.0260
     61 H          -9.5143   -0.5139   63.6691 H       1  UNL         0.0260
     62 H          -9.6435    1.2564   63.6770 H       1  UNL         0.0260
@<TRIPOS>BOND
     1     1     2    1
     2     1    26    1
     3     2     3    1
     4     2    30    1
     5     2    31    1
     6     3     4    1
     7     3    32    1
     8     3    33    1
     9     4     5    1
    10     4     9    1
    11     5     6    1
    12     5    34    1
    13     5    35    1
    14     6     7    1
    15     6    36    1
    16     6    37    1
    17     7     8    1
    18     7    10    1
    19     7    38    1
    20     8     9    1
    21     8    39    1
    22     8    40    1
    23     9    41    1
    24     9    42    1
    25    10    11    2
    26    10    12   am
    27    12    13    1
    28    12    43    1
    29    13    14    1
    30    13    20    1
    31    13    44    1
    32    14    15   ar
    33    14    19   ar
    34    15    16   ar
    35    15    45    1
    36    16    17   ar
    37    16    46    1
    38    17    18   ar
    39    17    47    1
    40    18    19   ar
    41    18    48    1
    42    19    49    1
    43    20    21   ar
    44    20    25   ar
    45    21    22   ar
    46    21    50    1
    47    22    23   ar
    48    22    51    1
    49    23    24   ar
    50    23    52    1
    51    24    25   ar
    52    24    53    1
    53    26    27    1
    54    26    28    1
    55    26    29    1
    56    27    54    1
    57    27    55    1
    58    27    56    1
    59    28    57    1
    60    28    58    1
    61    28    59    1
    62    29    60    1
    63    29    61    1
    64    29    62    1
@<TRIPOS>SUBSTRUCTURE
     1 UNL         1 TEMP              0 ****  ****    0 ROOT


##########                                Name:    ZINC001401207732
##########                DOCK_Rotatable_Bonds:                   8
##########                         Heavy_Atoms:                  23
##########                    Molecular_Weight:             337.446
##########                DOCK_Rotatable_Bonds:                   8
##########                       Formal_Charge:          -0.0199995
##########                     HBond_Acceptors:                   8
##########                        HBond_Donors:                   1
##########                         Heavy_Atoms:                  23
##########                          Grid_Score:          -34.332481
##########                     Grid_vdw_energy:          -32.887939
##########                      Grid_es_energy:           -1.444540
##########           Internal_energy_repulsive:           16.132465

@<TRIPOS>MOLECULE
ZINC001401207732
 46 47 1 0 0
SMALL
USER_CHARGES


@<TRIPOS>ATOM
      1 C1        -10.3585   -2.3332   52.3593 C.3     1  ZINC001401207732   -0.0900
      2 C2        -11.0285   -2.1954   53.7021 C.2     1  ZINC001401207732    0.1500
      3 C3        -11.3693   -0.9957   54.2360 C.2     1  ZINC001401207732   -0.3000
      4 C4        -11.1512    0.3180   53.6210 C.2     1  ZINC001401207732    0.6100
      5 O5        -11.7430    0.6181   52.6010 O.2     1  ZINC001401207732   -0.5200
      6 N6        -10.2953    1.1927   54.1856 N.am    1  ZINC001401207732   -0.5900
      7 C7         -9.5828    0.8313   55.4137 C.3     1  ZINC001401207732    0.0700
      8 C8        -10.0774    2.5047   53.5714 C.3     1  ZINC001401207732    0.1400
      9 H9        -10.7656    2.6336   52.7361 H       1  ZINC001401207732    0.1100
     10 C10       -10.3244    3.6012   54.6096 C.3     1  ZINC001401207732   -0.1600
     11 C11        -8.6368    2.5976   53.0643 C.3     1  ZINC001401207732    0.0500
     12 N12        -8.4913    1.7821   51.8512 N.3     1  ZINC001401207732   -0.6800
     13 C13        -7.6212    0.6241   52.0968 C.3     1  ZINC001401207732    0.1500
     14 C14        -6.4027    0.7153   51.2146 C.2     1  ZINC001401207732    0.1800
     15 N15        -5.7351    1.8035   50.9154 N.2     1  ZINC001401207732   -0.4800
     16 C16        -4.7360    1.4047   50.1082 C.2     1  ZINC001401207732    0.1800
     17 C17        -3.6836    2.2876   49.4884 C.3     1  ZINC001401207732   -0.0100
     18 C18        -3.6096    3.6089   50.2562 C.3     1  ZINC001401207732   -0.1500
     19 C19        -2.3263    1.5845   49.5515 C.3     1  ZINC001401207732   -0.1500
     20 N20        -4.8450    0.1182   49.9604 N.2     1  ZINC001401207732   -0.3800
     21 O21        -5.7928   -0.2981   50.5925 O.3     1  ZINC001401207732    0.0900
     22 S22       -12.1141   -1.2980   55.8041 S.3     1  ZINC001401207732    0.1800
     23 C23       -11.9074   -2.9812   55.5883 C.2     1  ZINC001401207732    0.0100
     24 N24       -11.3326   -3.2232   54.4541 N.2     1  ZINC001401207732   -0.4800
     25 H25        -9.2765   -2.3066   52.4886 H       1  ZINC001401207732    0.0800
     26 H26       -10.6469   -3.2811   51.9050 H       1  ZINC001401207732    0.0800
     27 H27       -10.6675   -1.5116   51.7130 H       1  ZINC001401207732    0.1000
     28 H28       -10.2183    1.0349   56.2757 H       1  ZINC001401207732    0.0600
     29 H29        -9.3318   -0.2291   55.3896 H       1  ZINC001401207732    0.0800
     30 H30        -8.6684    1.4196   55.4897 H       1  ZINC001401207732    0.0900
     31 H31       -10.1623    4.5774   54.1525 H       1  ZINC001401207732    0.0700
     32 H32       -11.3507    3.5350   54.9707 H       1  ZINC001401207732    0.0700
     33 H33        -9.6362    3.4723   55.4449 H       1  ZINC001401207732    0.0600
     34 H34        -7.9568    2.2302   53.8329 H       1  ZINC001401207732    0.0800
     35 H35        -8.3987    3.6361   52.8348 H       1  ZINC001401207732    0.0500
     36 H36        -8.1466    2.3366   51.0820 H       1  ZINC001401207732    0.3600
     37 H37        -8.1651   -0.2932   51.8713 H       1  ZINC001401207732    0.1100
     38 H38        -7.3132    0.6162   53.1423 H       1  ZINC001401207732    0.0800
     39 H39        -3.9422    2.4858   48.4482 H       1  ZINC001401207732    0.1000
     40 H40        -2.8485    4.2475   49.8080 H       1  ZINC001401207732    0.0700
     41 H41        -4.5766    4.1098   50.2113 H       1  ZINC001401207732    0.0600
     42 H42        -3.3510    3.4107   51.2964 H       1  ZINC001401207732    0.0600
     43 H43        -2.3790    0.6431   49.0045 H       1  ZINC001401207732    0.0600
     44 H44        -1.5651    2.2230   49.1032 H       1  ZINC001401207732    0.0700
     45 H45        -2.0677    1.3862   50.5917 H       1  ZINC001401207732    0.0600
     46 H46       -12.2092   -3.7356   56.2998 H       1  ZINC001401207732    0.2000
@<TRIPOS>BOND
     1     1     2    1
     2     1    25    1
     3     1    26    1
     4     1    27    1
     5     2    24    1
     6     2     3    2
     7     3     4    1
     8     3    22    1
     9     4     5    2
    10     4     6   am
    11     6     7    1
    12     6     8    1
    13     7    28    1
    14     7    29    1
    15     7    30    1
    16     8     9    1
    17     8    10    1
    18     8    11    1
    19    10    31    1
    20    10    32    1
    21    10    33    1
    22    11    12    1
    23    11    34    1
    24    11    35    1
    25    12    13    1
    26    12    36    1
    27    13    14    1
    28    13    37    1
    29    13    38    1
    30    14    21    1
    31    14    15    2
    32    15    16    1
    33    16    17    1
    34    16    20    2
    35    17    18    1
    36    17    19    1
    37    17    39    1
    38    18    40    1
    39    18    41    1
    40    18    42    1
    41    19    43    1
    42    19    44    1
    43    19    45    1
    44    20    21    1
    45    22    23    1
    46    23    24    2
    47    23    46    1
@<TRIPOS>SUBSTRUCTURE
     1 ZINC001401207732        1 TEMP              0 ****  ****    0 ROOT


##########                                Name:    ZINC001220171460
##########                DOCK_Rotatable_Bonds:                  10
##########                         Heavy_Atoms:                  25
##########                    Molecular_Weight:             383.773
##########                DOCK_Rotatable_Bonds:                  10
##########                       Formal_Charge:           0.0199996
##########                     HBond_Acceptors:                  10
##########                        HBond_Donors:                   3
##########                         Heavy_Atoms:                  25
##########                          Grid_Score:          -34.326874
##########                     Grid_vdw_energy:          -30.754223
##########                      Grid_es_energy:           -3.572652
##########           Internal_energy_repulsive:           13.371794

@<TRIPOS>MOLECULE
ZINC001220171460
 43 44 1 0 0
SMALL
USER_CHARGES


@<TRIPOS>ATOM
      1 C1         -9.8139   -2.7789   59.6157 C.3     1  ZINC001220171460    0.0200
      2 O2         -9.8521   -2.8657   58.1899 O.3     1  ZINC001220171460   -0.3100
      3 C3        -11.0800   -2.8762   57.6046 C.ar    1  ZINC001220171460    0.1000
      4 C4        -11.8810   -4.0023   57.6935 C.ar    1  ZINC001220171460   -0.1500
      5 C5        -13.1301   -4.0123   57.0978 C.ar    1  ZINC001220171460   -0.0600
      6 Cl6       -14.1327   -5.4251   57.2112 Cl      1  ZINC001220171460   -0.0400
      7 C7        -13.5821   -2.8972   56.4116 C.ar    1  ZINC001220171460    0.1000
      8 F8        -14.8023   -2.9108   55.8318 F       1  ZINC001220171460   -0.1200
      9 C9        -12.7858   -1.7688   56.3195 C.ar    1  ZINC001220171460   -0.1200
     10 C10       -11.5358   -1.7521   56.9197 C.ar    1  ZINC001220171460    0.1800
     11 N11       -10.7276   -0.6101   56.8276 N.am    1  ZINC001220171460   -0.6700
     12 C12       -10.1924   -0.2572   55.6421 C.2     1  ZINC001220171460    0.7100
     13 O13       -10.4105   -0.9290   54.6524 O.2     1  ZINC001220171460   -0.5700
     14 N14        -9.4155    0.8406   55.5536 N.am    1  ZINC001220171460   -0.7400
     15 C15        -8.8323    1.2233   54.2653 C.3     1  ZINC001220171460    0.1400
     16 C16        -7.8778    2.4018   54.4675 C.3     1  ZINC001220171460   -0.1400
     17 C17        -7.2398    2.7770   53.1285 C.3     1  ZINC001220171460    0.0500
     18 H18        -6.3621    3.3986   53.3057 H       1  ZINC001220171460    0.1000
     19 N19        -6.8391    1.5554   52.4176 N.3     1  ZINC001220171460   -0.6500
     20 C20        -5.6042    1.7727   51.6523 C.3     1  ZINC001220171460    0.0100
     21 C21        -5.1935    0.6905   50.6518 C.3     1  ZINC001220171460   -0.2000
     22 C22        -5.7398    2.0286   50.1500 C.3     1  ZINC001220171460   -0.1600
     23 C23        -8.2508    3.5519   52.2810 C.3     1  ZINC001220171460    0.4600
     24 F24        -8.9588    2.6602   51.4683 F       1  ZINC001220171460   -0.1800
     25 F25        -9.1434    4.2266   53.1208 F       1  ZINC001220171460   -0.1800
     26 F26        -7.5747    4.4777   51.4790 F       1  ZINC001220171460   -0.1700
     27 H27       -10.2993   -1.8573   59.9368 H       1  ZINC001220171460    0.0600
     28 H28       -10.3362   -3.6335   60.0460 H       1  ZINC001220171460    0.0600
     29 H29        -8.7771   -2.7798   59.9522 H       1  ZINC001220171460    0.1100
     30 H30       -11.5307   -4.8732   58.2276 H       1  ZINC001220171460    0.1500
     31 H31       -13.1395   -0.9002   55.7839 H       1  ZINC001220171460    0.1800
     32 H32       -10.5536   -0.0741   57.6172 H       1  ZINC001220171460    0.4200
     33 H33        -9.2425    1.3773   56.3429 H       1  ZINC001220171460    0.4000
     34 H34        -8.2834    0.3784   53.8496 H       1  ZINC001220171460    0.0800
     35 H35        -9.6274    1.5135   53.5784 H       1  ZINC001220171460    0.0700
     36 H36        -8.4320    3.2555   54.8577 H       1  ZINC001220171460    0.1000
     37 H37        -7.0981    2.1205   55.1754 H       1  ZINC001220171460    0.1000
     38 H38        -6.7367    0.7819   53.0574 H       1  ZINC001220171460    0.3600
     39 H39        -4.8086    2.2966   52.1823 H       1  ZINC001220171460    0.1200
     40 H40        -4.1276    0.5022   50.5234 H       1  ZINC001220171460    0.1000
     41 H41        -5.8397   -0.1827   50.5614 H       1  ZINC001220171460    0.1000
     42 H42        -6.7454    2.0358   49.7295 H       1  ZINC001220171460    0.1000
     43 H43        -5.0334    2.7206   49.6916 H       1  ZINC001220171460    0.1000
@<TRIPOS>BOND
     1     1     2    1
     2     1    27    1
     3     1    28    1
     4     1    29    1
     5     2     3    1
     6     3    10   ar
     7     3     4   ar
     8     4     5   ar
     9     4    30    1
    10     5     6    1
    11     5     7   ar
    12     7     8    1
    13     7     9   ar
    14     9    10   ar
    15     9    31    1
    16    10    11    1
    17    11    12   am
    18    11    32    1
    19    12    13    2
    20    12    14   am
    21    14    15    1
    22    14    33    1
    23    15    16    1
    24    15    34    1
    25    15    35    1
    26    16    17    1
    27    16    36    1
    28    16    37    1
    29    17    18    1
    30    17    19    1
    31    17    23    1
    32    19    20    1
    33    19    38    1
    34    20    22    1
    35    20    21    1
    36    20    39    1
    37    21    22    1
    38    21    40    1
    39    21    41    1
    40    22    42    1
    41    22    43    1
    42    23    24    1
    43    23    25    1
    44    23    26    1
@<TRIPOS>SUBSTRUCTURE
     1 ZINC001220171460        1 TEMP              0 ****  ****    0 ROOT


##########                                Name:    ZINC000623581528
##########                DOCK_Rotatable_Bonds:                   5
##########                         Heavy_Atoms:                  26
##########                    Molecular_Weight:             355.369
##########                DOCK_Rotatable_Bonds:                   5
##########                       Formal_Charge:        -4.47035e-07
##########                     HBond_Acceptors:                   7
##########                        HBond_Donors:                   2
##########                         Heavy_Atoms:                  26
##########                          Grid_Score:          -34.323563
##########                     Grid_vdw_energy:          -32.798744
##########                      Grid_es_energy:           -1.524818
##########           Internal_energy_repulsive:            6.302528

@<TRIPOS>MOLECULE
ZINC000623581528
 44 47 1 0 0
SMALL
USER_CHARGES


@<TRIPOS>ATOM
      1 C1         -9.8213    0.4240   53.4972 C.3     1  ZINC000623581528    0.1000
      2 N2         -8.8775   -0.2421   52.5960 N.am    1  ZINC000623581528   -0.5500
      3 C3         -8.9693   -1.5066   52.1388 C.2     1  ZINC000623581528    0.6300
      4 O4         -9.8597   -2.2886   52.4107 O.2     1  ZINC000623581528   -0.4800
      5 O5         -7.9254   -1.7688   51.3366 O.3     1  ZINC000623581528   -0.2300
      6 C6         -7.1349   -0.6703   51.2609 C.ar    1  ZINC000623581528    0.0400
      7 C7         -5.9549   -0.3997   50.5866 C.ar    1  ZINC000623581528   -0.0800
      8 C8         -5.3642    0.8438   50.7032 C.ar    1  ZINC000623581528   -0.0900
      9 C9         -5.9450    1.8218   51.4911 C.ar    1  ZINC000623581528   -0.0900
     10 C10        -5.2929    3.1750   51.6119 C.3     1  ZINC000623581528    0.1800
     11 N11        -3.8753    3.0063   51.9406 N.am    1  ZINC000623581528   -0.7400
     12 C12        -2.9433    3.0984   50.9714 C.2     1  ZINC000623581528    0.7100
     13 O13        -3.2791    3.3199   49.8240 O.2     1  ZINC000623581528   -0.5800
     14 N14        -1.6390    2.9448   51.2741 N.am    1  ZINC000623581528   -0.7300
     15 C15        -0.6257    3.0466   50.2208 C.3     1  ZINC000623581528    0.2000
     16 H16        -0.9384    3.7662   49.4643 H       1  ZINC000623581528    0.1000
     17 C17        -0.3815    1.6650   49.5773 C.3     1  ZINC000623581528   -0.1300
     18 C18         0.7964    1.1153   50.4096 C.3     1  ZINC000623581528   -0.0800
     19 C19         1.5255    2.3394   50.9209 C.ar    1  ZINC000623581528   -0.1000
     20 C20         2.8027    2.4709   51.4398 C.ar    1  ZINC000623581528   -0.0800
     21 C21         3.2634    3.7069   51.8490 C.ar    1  ZINC000623581528   -0.1400
     22 C22         2.4460    4.8188   51.7408 C.ar    1  ZINC000623581528    0.0900
     23 F23         2.8938    6.0294   52.1397 F       1  ZINC000623581528   -0.1400
     24 C24         1.1695    4.6882   51.2228 C.ar    1  ZINC000623581528   -0.1200
     25 C25         0.7075    3.4519   50.8120 C.ar    1  ZINC000623581528   -0.0900
     26 C26        -7.1215    1.5612   52.1673 C.ar    1  ZINC000623581528   -0.0800
     27 C27        -7.7232    0.3184   52.0500 C.ar    1  ZINC000623581528    0.0700
     28 H28       -10.5973    0.9164   52.9111 H       1  ZINC000623581528    0.0800
     29 H29       -10.2775   -0.3148   54.1562 H       1  ZINC000623581528    0.0900
     30 H30        -9.2913    1.1658   54.0946 H       1  ZINC000623581528    0.0900
     31 H31        -5.4975   -1.1600   49.9709 H       1  ZINC000623581528    0.1500
     32 H32        -4.4446    1.0535   50.1772 H       1  ZINC000623581528    0.1500
     33 H33        -5.3857    3.7088   50.6661 H       1  ZINC000623581528    0.0800
     34 H34        -5.7834    3.7455   52.4007 H       1  ZINC000623581528    0.0800
     35 H35        -3.6075    2.8284   52.8558 H       1  ZINC000623581528    0.4000
     36 H36        -1.3710    2.7668   52.1892 H       1  ZINC000623581528    0.4000
     37 H37        -1.2600    1.0283   49.6816 H       1  ZINC000623581528    0.0900
     38 H38        -0.0999    1.7700   48.5296 H       1  ZINC000623581528    0.0900
     39 H39         0.4248    0.5204   51.2439 H       1  ZINC000623581528    0.0800
     40 H40         1.4563    0.5168   49.7816 H       1  ZINC000623581528    0.0800
     41 H41         3.4409    1.6039   51.5244 H       1  ZINC000623581528    0.1300
     42 H42         4.2600    3.8057   52.2531 H       1  ZINC000623581528    0.1400
     43 H43         0.5314    5.5554   51.1383 H       1  ZINC000623581528    0.1400
     44 H44        -7.5735    2.3257   52.7819 H       1  ZINC000623581528    0.1400
@<TRIPOS>BOND
     1     1     2    1
     2     1    28    1
     3     1    29    1
     4     1    30    1
     5     2    27    1
     6     2     3   am
     7     3     4    2
     8     3     5    1
     9     5     6    1
    10     6    27   ar
    11     6     7   ar
    12     7     8   ar
    13     7    31    1
    14     8     9   ar
    15     8    32    1
    16     9    10    1
    17     9    26   ar
    18    10    11    1
    19    10    33    1
    20    10    34    1
    21    11    12   am
    22    11    35    1
    23    12    13    2
    24    12    14   am
    25    14    15    1
    26    14    36    1
    27    15    16    1
    28    15    25    1
    29    15    17    1
    30    17    18    1
    31    17    37    1
    32    17    38    1
    33    18    19    1
    34    18    39    1
    35    18    40    1
    36    19    25   ar
    37    19    20   ar
    38    20    21   ar
    39    20    41    1
    40    21    22   ar
    41    21    42    1
    42    22    23    1
    43    22    24   ar
    44    24    25   ar
    45    24    43    1
    46    26    27   ar
    47    26    44    1
@<TRIPOS>SUBSTRUCTURE
     1 ZINC000623581528        1 TEMP              0 ****  ****    0 ROOT


##########                                Name:    ZINC000626935317
##########                DOCK_Rotatable_Bonds:                   6
##########                         Heavy_Atoms:                  25
##########                    Molecular_Weight:             366.441
##########                DOCK_Rotatable_Bonds:                   6
##########                       Formal_Charge:          -0.0200006
##########                     HBond_Acceptors:                   9
##########                        HBond_Donors:                   2
##########                         Heavy_Atoms:                  25
##########                          Grid_Score:          -34.292519
##########                     Grid_vdw_energy:          -32.490513
##########                      Grid_es_energy:           -1.802006
##########           Internal_energy_repulsive:           14.918743

@<TRIPOS>MOLECULE
ZINC000626935317
 47 49 1 0 0
SMALL
USER_CHARGES


@<TRIPOS>ATOM
      1 C1        -10.7255    2.0002   51.9939 C.3     1  ZINC000626935317    0.0900
      2 N2         -9.7808    2.5126   52.9895 N.am    1  ZINC000626935317   -0.6200
      3 C3        -10.1230    2.9029   54.2294 C.2     1  ZINC000626935317    0.5200
      4 O4        -11.2504    2.8872   54.6762 O.2     1  ZINC000626935317   -0.5200
      5 C5         -8.8973    3.3645   54.9865 C.3     1  ZINC000626935317   -0.1500
      6 C6         -7.7120    2.8049   54.1662 C.3     1  ZINC000626935317   -0.1200
      7 H7         -7.3953    1.8351   54.5499 H       1  ZINC000626935317    0.1200
      8 C8         -6.5608    3.7773   54.1496 C.2     1  ZINC000626935317    0.5300
      9 O9         -6.7430    4.9380   54.4505 O.2     1  ZINC000626935317   -0.5200
     10 N10        -5.3288    3.3571   53.8003 N.am    1  ZINC000626935317   -0.7100
     11 C11        -4.2100    4.3028   53.7825 C.3     1  ZINC000626935317    0.1200
     12 C12        -2.8305    3.6266   53.8511 C.3     1  ZINC000626935317   -0.1600
     13 C13        -2.8719    3.5643   52.3151 C.3     1  ZINC000626935317    0.1200
     14 N14        -3.4990    2.3472   51.7938 N.am    1  ZINC000626935317   -1.1100
     15 S15        -2.8690    1.5982   50.4579 S.o2    1  ZINC000626935317    2.6100
     16 C16        -2.9644    2.8510   49.1495 C.3     1  ZINC000626935317   -0.6700
     17 O17        -1.5152    1.3422   50.8054 O.2     1  ZINC000626935317   -0.9500
     18 O18        -3.7720    0.5329   50.1951 O.2     1  ZINC000626935317   -0.9500
     19 C19        -3.8224    4.7719   52.3702 C.3     1  ZINC000626935317   -0.1600
     20 C20        -8.3381    2.6596   52.7634 C.3     1  ZINC000626935317    0.2000
     21 H21        -8.1447    3.5530   52.1696 H       1  ZINC000626935317    0.1100
     22 C22        -7.7843    1.4425   52.0686 C.ar    1  ZINC000626935317   -0.1600
     23 C23        -7.9104    0.1875   52.6440 C.ar    1  ZINC000626935317   -0.0500
     24 C24        -7.3859   -0.9040   51.9684 C.ar    1  ZINC000626935317   -0.1700
     25 C25        -6.7595   -0.7061   50.7528 C.ar    1  ZINC000626935317    0.1000
     26 N26        -6.6577    0.5027   50.2352 N.ar    1  ZINC000626935317   -0.4800
     27 C27        -7.1491    1.5624   50.8468 C.ar    1  ZINC000626935317    0.1200
     28 H28       -10.8081    0.9180   52.0944 H       1  ZINC000626935317    0.0600
     29 H29       -11.7031    2.4554   52.1526 H       1  ZINC000626935317    0.0800
     30 H30       -10.3683    2.2461   50.9938 H       1  ZINC000626935317    0.0700
     31 H31        -8.8574    4.4531   55.0206 H       1  ZINC000626935317    0.1100
     32 H32        -8.8930    2.9499   55.9945 H       1  ZINC000626935317    0.1200
     33 H33        -5.1827    2.4285   53.5608 H       1  ZINC000626935317    0.4000
     34 H34        -4.3338    5.1184   54.4949 H       1  ZINC000626935317    0.1100
     35 H35        -2.0455    4.2745   54.2408 H       1  ZINC000626935317    0.1100
     36 H36        -2.8479    2.6467   54.3285 H       1  ZINC000626935317    0.0800
     37 H37        -1.9138    3.7822   51.8433 H       1  ZINC000626935317    0.1100
     38 H38        -4.2833    1.9802   52.2311 H       1  ZINC000626935317    0.4100
     39 H39        -2.3804    3.7245   49.4395 H       1  ZINC000626935317    0.1300
     40 H40        -2.5659    2.4390   48.2223 H       1  ZINC000626935317    0.1300
     41 H41        -4.0042    3.1422   49.0003 H       1  ZINC000626935317    0.1300
     42 H42        -4.6405    4.7169   51.6520 H       1  ZINC000626935317    0.0900
     43 H43        -3.3086    5.7330   52.3550 H       1  ZINC000626935317    0.1100
     44 H44        -8.4050    0.0630   53.5959 H       1  ZINC000626935317    0.1400
     45 H45        -7.4658   -1.8963   52.3872 H       1  ZINC000626935317    0.1400
     46 H46        -6.3480   -1.5509   50.2205 H       1  ZINC000626935317    0.1600
     47 H47        -7.0465    2.5366   50.3920 H       1  ZINC000626935317    0.1500
@<TRIPOS>BOND
     1     1     2    1
     2     1    28    1
     3     1    29    1
     4     1    30    1
     5     2    20    1
     6     2     3   am
     7     3     4    2
     8     3     5    1
     9     5     6    1
    10     5    31    1
    11     5    32    1
    12     6     7    1
    13     6     8    1
    14     6    20    1
    15     8     9    2
    16     8    10   am
    17    10    11    1
    18    10    33    1
    19    11    19    1
    20    11    12    1
    21    11    34    1
    22    12    13    1
    23    12    35    1
    24    12    36    1
    25    13    14    1
    26    13    19    1
    27    13    37    1
    28    14    15   am
    29    14    38    1
    30    15    16    1
    31    15    17    2
    32    15    18    2
    33    16    39    1
    34    16    40    1
    35    16    41    1
    36    19    42    1
    37    19    43    1
    38    20    21    1
    39    20    22    1
    40    22    27   ar
    41    22    23   ar
    42    23    24   ar
    43    23    44    1
    44    24    25   ar
    45    24    45    1
    46    25    26   ar
    47    25    46    1
    48    26    27   ar
    49    27    47    1
@<TRIPOS>SUBSTRUCTURE
     1 ZINC000626935317        1 TEMP              0 ****  ****    0 ROOT


##########                                Name:    ZINC000342525234
##########                DOCK_Rotatable_Bonds:                   6
##########                         Heavy_Atoms:                  25
##########                    Molecular_Weight:             333.349
##########                DOCK_Rotatable_Bonds:                   6
##########                       Formal_Charge:           0.0500003
##########                     HBond_Acceptors:                   7
##########                        HBond_Donors:                   2
##########                         Heavy_Atoms:                  25
##########                          Grid_Score:          -34.283077
##########                     Grid_vdw_energy:          -31.543917
##########                      Grid_es_energy:           -2.739161
##########           Internal_energy_repulsive:            4.200024

@<TRIPOS>MOLECULE
ZINC000342525234
 40 43 1 0 0
SMALL
USER_CHARGES


@<TRIPOS>ATOM
      1 O1          0.3794    0.9020   50.5826 O.2     1  <0>        -0.5100
      2 C2          0.2544    1.5468   49.5605 C.2     1  <0>         0.6000
      3 N3         -0.9739    1.8987   49.1316 N.am    1  <0>        -0.7100
      4 C4         -2.1587    1.4984   49.8946 C.3     1  <0>         0.1200
      5 C5         -3.3754    2.2799   49.3946 C.3     1  <0>        -0.0900
      6 C6         -4.6094    1.8043   50.1170 C.ar    1  <0>        -0.0400
      7 C7         -4.9624    0.4976   50.0292 C.ar    1  <0>        -0.1000
      8 C8         -6.1164    0.0406   50.7017 C.ar    1  <0>         0.1100
      9 N9         -6.7208   -1.1276   50.8197 N.2     1  <0>        -0.3100
     10 N10        -7.8520   -0.9746   51.6296 N.pl3   1  <0>        -0.4200
     11 C11        -7.9617    0.3008   52.0255 C.2     1  <0>         0.0900
     12 C12        -6.9046    1.0070   51.4824 C.ar    1  <0>        -0.2100
     13 C13        -6.4777    2.3513   51.5292 C.ar    1  <0>        -0.0400
     14 C14        -5.3550    2.7200   50.8630 C.ar    1  <0>        -0.1500
     15 C15         1.4541    1.9522   48.7879 C.2     1  <0>        -0.0200
     16 N16         2.6913    1.5767   49.0028 N.2     1  <0>        -0.3200
     17 O17         3.4547    2.0726   48.2077 O.3     1  <0>         0.1400
     18 C18         2.8149    2.8669   47.3313 C.2     1  <0>         0.0100
     19 C19         3.4232    3.6344   46.2231 C.ar    1  <0>         0.0200
     20 C20         4.8012    3.5828   45.9839 C.ar    1  <0>        -0.1400
     21 C21         5.3263    4.3145   44.9387 C.ar    1  <0>         0.1100
     22 N22         4.5488    5.0545   44.1717 N.ar    1  <0>        -0.4800
     23 C23         3.2456    5.1313   44.3625 C.ar    1  <0>         0.1100
     24 C24         2.6360    4.4279   45.3809 C.ar    1  <0>        -0.1500
     25 C25         1.4903    2.8193   47.6643 C.2     1  <0>        -0.1500
     26 H26        -1.0734    2.4169   48.3177 H       1  <0>         0.4100
     27 H27        -2.3329    0.4307   49.7616 H       1  <0>         0.0800
     28 H28        -1.9992    1.7116   50.9515 H       1  <0>         0.0800
     29 H29        -3.2286    3.3427   49.5869 H       1  <0>         0.0900
     30 H30        -3.4961    2.1178   48.3234 H       1  <0>         0.0800
     31 H31        -4.3646   -0.1889   49.4483 H       1  <0>         0.1300
     32 H32        -8.4659   -1.6864   51.8687 H       1  <0>         0.4500
     33 H33        -8.7388    0.7055   52.6569 H       1  <0>         0.1900
     34 H34        -7.0384    3.0806   52.0952 H       1  <0>         0.1300
     35 H35        -5.0339    3.7504   50.9035 H       1  <0>         0.1200
     36 H36         5.4438    2.9797   46.6081 H       1  <0>         0.1400
     37 H37         6.3885    4.2813   44.7460 H       1  <0>         0.1700
     38 H38         2.6474    5.7499   43.7100 H       1  <0>         0.1700
     39 H39         1.5686    4.4955   45.5311 H       1  <0>         0.1500
     40 H40         0.6649    3.3276   47.1881 H       1  <0>         0.1900
@<TRIPOS>BOND
     1     1     2    2
     2     2     3   am
     3     2    15    1
     4     3     4    1
     5     3    26    1
     6     4     5    1
     7     4    27    1
     8     4    28    1
     9     5     6    1
    10     5    29    1
    11     5    30    1
    12     6    14   ar
    13     6     7   ar
    14     7     8   ar
    15     7    31    1
    16     8    12   ar
    17     8     9    2
    18     9    10    1
    19    10    11    1
    20    10    32    1
    21    11    12    2
    22    11    33    1
    23    12    13   ar
    24    13    14   ar
    25    13    34    1
    26    14    35    1
    27    15    25    1
    28    15    16    2
    29    16    17    1
    30    17    18    1
    31    18    19    1
    32    18    25    2
    33    19    24   ar
    34    19    20   ar
    35    20    21   ar
    36    20    36    1
    37    21    22   ar
    38    21    37    1
    39    22    23   ar
    40    23    24   ar
    41    23    38    1
    42    24    39    1
    43    25    40    1
@<TRIPOS>SUBSTRUCTURE
     1 <0>         1 TEMP              0 ****  ****    0 ROOT


##########                                Name:    ZINC001344051361
##########                DOCK_Rotatable_Bonds:                   8
##########                         Heavy_Atoms:                  28
##########                    Molecular_Weight:             379.456
##########                DOCK_Rotatable_Bonds:                   8
##########                       Formal_Charge:          -0.0100006
##########                     HBond_Acceptors:                   5
##########                        HBond_Donors:                   0
##########                         Heavy_Atoms:                  28
##########                          Grid_Score:          -34.248913
##########                     Grid_vdw_energy:          -31.713549
##########                      Grid_es_energy:           -2.535363
##########           Internal_energy_repulsive:           18.749886

@<TRIPOS>MOLECULE
ZINC001344051361
 53 56 1 0 0
SMALL
USER_CHARGES


@<TRIPOS>ATOM
      1 O1         -4.3891    2.1478   48.6504 O.2     1  ZINC001344051361   -0.4800
      2 C2         -3.8807    2.4090   49.7149 C.2     1  ZINC001344051361    0.4800
      3 O3         -2.6285    2.8901   49.7606 O.3     1  ZINC001344051361   -0.3500
      4 C4         -1.6254    2.1929   48.9757 C.3     1  ZINC001344051361    0.0700
      5 C5         -0.2315    2.5521   49.4945 C.3     1  ZINC001344051361   -0.1000
      6 H6         -0.1067    3.6348   49.4825 H       1  ZINC001344051361    0.0900
      7 C7         -0.0704    2.0351   50.9259 C.3     1  ZINC001344051361   -0.1200
      8 C8          1.3115    2.4224   51.4574 C.3     1  ZINC001344051361   -0.1300
      9 C9          2.3902    1.7733   50.5847 C.3     1  ZINC001344051361    0.0800
     10 N10         2.1551    2.1498   49.1840 N.am    1  ZINC001344051361   -0.6100
     11 C11         3.1368    2.7093   48.4494 C.2     1  ZINC001344051361    0.5600
     12 O12         4.2292    2.9067   48.9446 O.2     1  ZINC001344051361   -0.5300
     13 C13         2.8851    3.0828   47.0411 C.ar    1  ZINC001344051361   -0.1300
     14 C14         2.9342    4.4222   46.6519 C.ar    1  ZINC001344051361   -0.1000
     15 C15         2.6987    4.7640   45.3361 C.ar    1  ZINC001344051361   -0.1300
     16 C16         2.4141    3.7823   44.4035 C.ar    1  ZINC001344051361   -0.0900
     17 C17         2.3635    2.4528   44.7830 C.ar    1  ZINC001344051361   -0.1300
     18 C18         2.6032    2.0969   46.0943 C.ar    1  ZINC001344051361   -0.0600
     19 C19         0.8297    1.9051   48.5990 C.3     1  ZINC001344051361    0.1200
     20 C20        -4.6548    2.2006   50.9909 C.3     1  ZINC001344051361    0.0200
     21 O21        -3.8751    2.1794   52.1883 O.3     1  ZINC001344051361   -0.2500
     22 C22        -3.7308    3.3567   52.8516 C.ar    1  ZINC001344051361    0.1200
     23 C23        -3.4662    3.3589   54.2135 C.ar    1  ZINC001344051361   -0.2000
     24 C24        -3.3194    4.5571   54.8855 C.ar    1  ZINC001344051361   -0.0800
     25 C25        -3.4365    5.7533   54.2019 C.ar    1  ZINC001344051361   -0.1500
     26 C26        -3.7004    5.7536   52.8447 C.ar    1  ZINC001344051361   -0.0800
     27 C27        -3.8419    4.5581   52.1670 C.ar    1  ZINC001344051361   -0.1400
     28 C28        -6.0586    2.8038   51.0722 C.3     1  ZINC001344051361   -0.1700
     29 C29        -5.8831    1.2904   50.9315 C.3     1  ZINC001344051361   -0.1100
     30 H30        -1.7793    1.1174   49.0623 H       1  ZINC001344051361    0.0800
     31 H31        -1.7114    2.4893   47.9304 H       1  ZINC001344051361    0.0800
     32 H32        -0.8399    2.4756   51.5599 H       1  ZINC001344051361    0.0700
     33 H33        -0.1713    0.9499   50.9336 H       1  ZINC001344051361    0.0700
     34 H34         1.4224    3.5063   51.4269 H       1  ZINC001344051361    0.0700
     35 H35         1.4167    2.0742   52.4850 H       1  ZINC001344051361    0.0800
     36 H36         3.3735    2.1246   50.8974 H       1  ZINC001344051361    0.1100
     37 H37         2.3381    0.6892   50.6853 H       1  ZINC001344051361    0.0700
     38 H38         3.1554    5.1894   47.3790 H       1  ZINC001344051361    0.1400
     39 H39         2.7364    5.8000   45.0335 H       1  ZINC001344051361    0.1300
     40 H40         2.2302    4.0552   43.3748 H       1  ZINC001344051361    0.1300
     41 H41         2.1405    1.6914   44.0502 H       1  ZINC001344051361    0.1300
     42 H42         2.5637    1.0587   46.3891 H       1  ZINC001344051361    0.1300
     43 H43         0.6500    0.8318   48.5375 H       1  ZINC001344051361    0.0700
     44 H44         0.7840    2.3430   47.6018 H       1  ZINC001344051361    0.1000
     45 H45        -3.3755    2.4249   54.7480 H       1  ZINC001344051361    0.1300
     46 H46        -3.1136    4.5594   55.9457 H       1  ZINC001344051361    0.1300
     47 H47        -3.3217    6.6889   54.7291 H       1  ZINC001344051361    0.1300
     48 H48        -3.7918    6.6893   52.3131 H       1  ZINC001344051361    0.1300
     49 H49        -4.0482    4.5589   51.1068 H       1  ZINC001344051361    0.1300
     50 H50        -6.3876    3.1845   52.0390 H       1  ZINC001344051361    0.1200
     51 H51        -6.4222    3.3512   50.2026 H       1  ZINC001344051361    0.1200
     52 H52        -6.1313    0.8422   49.9695 H       1  ZINC001344051361    0.1200
     53 H53        -6.0967    0.6755   51.8059 H       1  ZINC001344051361    0.1200
@<TRIPOS>BOND
     1     1     2    2
     2     2     3    1
     3     2    20    1
     4     3     4    1
     5     4     5    1
     6     4    30    1
     7     4    31    1
     8     5     6    1
     9     5    19    1
    10     5     7    1
    11     7     8    1
    12     7    32    1
    13     7    33    1
    14     8     9    1
    15     8    34    1
    16     8    35    1
    17     9    10    1
    18     9    36    1
    19     9    37    1
    20    10    11   am
    21    10    19    1
    22    11    12    2
    23    11    13    1
    24    13    18   ar
    25    13    14   ar
    26    14    15   ar
    27    14    38    1
    28    15    16   ar
    29    15    39    1
    30    16    17   ar
    31    16    40    1
    32    17    18   ar
    33    17    41    1
    34    18    42    1
    35    19    43    1
    36    19    44    1
    37    20    29    1
    38    20    21    1
    39    20    28    1
    40    21    22    1
    41    22    27   ar
    42    22    23   ar
    43    23    24   ar
    44    23    45    1
    45    24    25   ar
    46    24    46    1
    47    25    26   ar
    48    25    47    1
    49    26    27   ar
    50    26    48    1
    51    27    49    1
    52    28    29    1
    53    28    50    1
    54    28    51    1
    55    29    52    1
    56    29    53    1
@<TRIPOS>SUBSTRUCTURE
     1 ZINC001344051361        1 TEMP              0 ****  ****    0 ROOT


##########                                Name:    ZINC000939075213
##########                DOCK_Rotatable_Bonds:                   7
##########                         Heavy_Atoms:                  24
##########                    Molecular_Weight:             327.426
##########                DOCK_Rotatable_Bonds:                   7
##########                       Formal_Charge:          -0.0200002
##########                     HBond_Acceptors:                   5
##########                        HBond_Donors:                   2
##########                         Heavy_Atoms:                  24
##########                          Grid_Score:          -34.242813
##########                     Grid_vdw_energy:          -33.057419
##########                      Grid_es_energy:           -1.185393
##########           Internal_energy_repulsive:            8.177769

@<TRIPOS>MOLECULE
ZINC000939075213
 49 51 1 0 0
SMALL
USER_CHARGES


@<TRIPOS>ATOM
      1 C1        -11.5175    2.1667   53.6130 C.3     1  ZINC000939075213   -0.1400
      2 C2        -10.5635    0.9758   53.7252 C.3     1  ZINC000939075213   -0.1100
      3 H3        -10.1843    0.8760   54.7422 H       1  ZINC000939075213    0.0900
      4 C4         -9.4011    1.0980   52.7086 C.3     1  ZINC000939075213    0.1100
      5 N5         -8.9518   -0.2875   52.4808 N.am    1  ZINC000939075213   -0.6200
      6 C6         -7.7256   -0.6565   52.0602 C.2     1  ZINC000939075213    0.5600
      7 O7         -7.4638   -1.8359   51.9071 O.2     1  ZINC000939075213   -0.5400
      8 C8         -6.7423    0.3267   51.7966 C.2     1  ZINC000939075213   -0.2600
      9 C9         -6.1532    0.3863   50.5766 C.2     1  ZINC000939075213    0.0400
     10 C10        -5.1689    1.3704   50.3125 C.2     1  ZINC000939075213    0.0000
     11 C11        -4.9679    2.5381   51.0253 C.2     1  ZINC000939075213   -0.1500
     12 C12        -3.8988    3.2078   50.4230 C.2     1  ZINC000939075213   -0.2200
     13 C13        -3.4733    2.4583   49.3775 C.2     1  ZINC000939075213    0.0200
     14 N14        -4.2335    1.3360   49.3026 N.pl3   1  ZINC000939075213   -0.5000
     15 C15       -10.0625   -1.2001   52.7892 C.3     1  ZINC000939075213    0.0900
     16 C16       -11.2515   -0.3338   53.2572 C.3     1  ZINC000939075213    0.1400
     17 H17       -11.9336   -0.1361   52.4303 H       1  ZINC000939075213    0.1100
     18 N18       -11.9579   -0.9792   54.3666 N.am    1  ZINC000939075213   -0.7200
     19 C19       -12.5079   -2.1979   54.1973 C.2     1  ZINC000939075213    0.5300
     20 O20       -12.4193   -2.7597   53.1260 O.2     1  ZINC000939075213   -0.5300
     21 C21       -13.2331   -2.8625   55.3390 C.3     1  ZINC000939075213   -0.0600
     22 C22       -14.1018   -1.8452   56.0815 C.3     1  ZINC000939075213   -0.1300
     23 C23       -14.0773   -4.0079   54.8308 C.2     1  ZINC000939075213   -0.1700
     24 C24       -13.9434   -5.0626   55.5880 C.2     1  ZINC000939075213   -0.1400
     25 C25       -12.9874   -4.7964   56.7274 C.3     1  ZINC000939075213   -0.1100
     26 C26       -12.2235   -3.5186   56.3093 C.3     1  ZINC000939075213   -0.1100
     27 H27       -12.3667    2.0160   54.2797 H       1  ZINC000939075213    0.0600
     28 H28       -10.9930    3.0801   53.8937 H       1  ZINC000939075213    0.0700
     29 H29       -11.8725    2.2525   52.5861 H       1  ZINC000939075213    0.0600
     30 H30        -9.7562    1.5397   51.7775 H       1  ZINC000939075213    0.0700
     31 H31        -8.5915    1.6952   53.1282 H       1  ZINC000939075213    0.0800
     32 H32        -6.4612    1.0294   52.5670 H       1  ZINC000939075213    0.1300
     33 H33        -6.4345   -0.3165   49.8062 H       1  ZINC000939075213    0.1500
     34 H34        -5.5310    2.8703   51.8849 H       1  ZINC000939075213    0.1400
     35 H35        -3.4853    4.1552   50.7357 H       1  ZINC000939075213    0.1400
     36 H36        -2.6595    2.7108   48.7139 H       1  ZINC000939075213    0.1600
     37 H37        -4.1374    0.6304   48.6440 H       1  ZINC000939075213    0.4100
     38 H38       -10.3404   -1.7606   51.8966 H       1  ZINC000939075213    0.0800
     39 H39        -9.7690   -1.8860   53.5838 H       1  ZINC000939075213    0.0700
     40 H40       -12.0298   -0.5294   55.2230 H       1  ZINC000939075213    0.4000
     41 H41       -14.8257   -1.4128   55.3907 H       1  ZINC000939075213    0.0600
     42 H42       -14.6287   -2.3428   56.8955 H       1  ZINC000939075213    0.0700
     43 H43       -13.4699   -1.0550   56.4870 H       1  ZINC000939075213    0.0600
     44 H44       -14.7090   -3.9600   53.9561 H       1  ZINC000939075213    0.1300
     45 H45       -14.4497   -6.0020   55.4221 H       1  ZINC000939075213    0.1300
     46 H46       -13.5377   -4.6242   57.6525 H       1  ZINC000939075213    0.0800
     47 H47       -12.2959   -5.6306   56.8457 H       1  ZINC000939075213    0.0800
     48 H48       -11.2941   -3.7682   55.7972 H       1  ZINC000939075213    0.0900
     49 H49       -12.0339   -2.8769   57.1697 H       1  ZINC000939075213    0.0800
@<TRIPOS>BOND
     1     1     2    1
     2     1    27    1
     3     1    28    1
     4     1    29    1
     5     2     3    1
     6     2    16    1
     7     2     4    1
     8     4     5    1
     9     4    30    1
    10     4    31    1
    11     5     6   am
    12     5    15    1
    13     6     7    2
    14     6     8    1
    15     8     9    2
    16     8    32    1
    17     9    10    1
    18     9    33    1
    19    10    14    1
    20    10    11    2
    21    11    12    1
    22    11    34    1
    23    12    13    2
    24    12    35    1
    25    13    14    1
    26    13    36    1
    27    14    37    1
    28    15    16    1
    29    15    38    1
    30    15    39    1
    31    16    17    1
    32    16    18    1
    33    18    19   am
    34    18    40    1
    35    19    20    2
    36    19    21    1
    37    21    26    1
    38    21    22    1
    39    21    23    1
    40    22    41    1
    41    22    42    1
    42    22    43    1
    43    23    24    2
    44    23    44    1
    45    24    25    1
    46    24    45    1
    47    25    26    1
    48    25    46    1
    49    25    47    1
    50    26    48    1
    51    26    49    1
@<TRIPOS>SUBSTRUCTURE
     1 ZINC000939075213        1 TEMP              0 ****  ****    0 ROOT


##########                                Name:    ZINC000992031068
##########                DOCK_Rotatable_Bonds:                   8
##########                         Heavy_Atoms:                  25
##########                    Molecular_Weight:             342.401
##########                DOCK_Rotatable_Bonds:                   8
##########                       Formal_Charge:           0.0199999
##########                     HBond_Acceptors:                   8
##########                        HBond_Donors:                   2
##########                         Heavy_Atoms:                  25
##########                          Grid_Score:          -34.225761
##########                     Grid_vdw_energy:          -33.306526
##########                      Grid_es_energy:           -0.919236
##########           Internal_energy_repulsive:            6.898824

@<TRIPOS>MOLECULE
ZINC000992031068
 47 49 1 0 0
SMALL
USER_CHARGES


@<TRIPOS>ATOM
      1 C1          1.7190    1.6985   48.4902 C.3     1  ZINC000992031068   -0.1100
      2 C2          0.9102    2.7477   49.2087 C.ar    1  ZINC000992031068    0.1800
      3 C3         -0.4627    2.6033   49.3482 C.ar    1  ZINC000992031068   -0.1700
      4 C4         -1.1672    3.6017   50.0219 C.ar    1  ZINC000992031068    0.1300
      5 C5         -2.6373    3.4984   50.2008 C.2     1  ZINC000992031068    0.5700
      6 O6         -3.1764    4.0588   51.1340 O.2     1  ZINC000992031068   -0.5200
      7 N7         -3.3738    2.7829   49.3279 N.am    1  ZINC000992031068   -0.7100
      8 C8         -4.8247    2.6825   49.5034 C.3     1  ZINC000992031068    0.1300
      9 C9         -5.1486    1.4847   50.3986 C.3     1  ZINC000992031068   -0.1200
     10 C10        -5.7291    1.8777   51.7673 C.3     1  ZINC000992031068   -0.1400
     11 C11        -6.6893    0.6863   51.6141 C.3     1  ZINC000992031068    0.1200
     12 N12        -8.0510    0.9670   52.0760 N.am    1  ZINC000992031068   -0.7200
     13 C13        -8.8814   -0.0493   52.3828 C.2     1  ZINC000992031068    0.5200
     14 O14        -8.5008   -1.1960   52.2781 O.2     1  ZINC000992031068   -0.5200
     15 C15       -10.2827    0.2394   52.8562 C.3     1  ZINC000992031068   -0.0800
     16 C16       -10.7217   -0.8389   53.8130 C.2     1  ZINC000992031068    0.1000
     17 C17       -10.5612   -0.8271   55.1565 C.2     1  ZINC000992031068   -0.2500
     18 C18       -11.1060   -2.0106   55.6655 C.2     1  ZINC000992031068    0.0500
     19 N19       -11.5767   -2.7079   54.6635 N.2     1  ZINC000992031068   -0.2900
     20 N20       -11.3508   -1.9867   53.4839 N.pl3   1  ZINC000992031068   -0.3700
     21 C21       -11.7233   -2.4082   52.1313 C.3     1  ZINC000992031068    0.1000
     22 C22        -6.5105    0.8387   50.0944 C.3     1  ZINC000992031068   -0.1400
     23 N23        -0.4992    4.6478   50.5019 N.ar    1  ZINC000992031068   -0.5000
     24 C24         0.8039    4.7429   50.3459 C.ar    1  ZINC000992031068    0.3000
     25 N25         1.5005    3.8150   49.7188 N.ar    1  ZINC000992031068   -0.5100
     26 H26         2.0524    0.9450   49.2038 H       1  ZINC000992031068    0.0900
     27 H27         1.1034    1.2264   47.7245 H       1  ZINC000992031068    0.0900
     28 H28         2.5861    2.1651   48.0227 H       1  ZINC000992031068    0.0900
     29 H29        -0.9729    1.7407   48.9455 H       1  ZINC000992031068    0.1600
     30 H30        -2.9432    2.3345   48.5833 H       1  ZINC000992031068    0.4100
     31 H31        -5.1986    3.5950   49.9680 H       1  ZINC000992031068    0.0700
     32 H32        -5.2999    2.5487   48.5315 H       1  ZINC000992031068    0.0800
     33 H33        -4.3293    0.7683   50.4597 H       1  ZINC000992031068    0.1000
     34 H34        -5.0224    1.7661   52.5896 H       1  ZINC000992031068    0.0800
     35 H35        -6.2306    2.8455   51.7672 H       1  ZINC000992031068    0.0900
     36 H36        -6.2922   -0.2482   52.0104 H       1  ZINC000992031068    0.1200
     37 H37        -8.3549    1.8842   52.1609 H       1  ZINC000992031068    0.4000
     38 H38       -10.3038    1.2046   53.3620 H       1  ZINC000992031068    0.1200
     39 H39       -10.9576    0.2627   52.0005 H       1  ZINC000992031068    0.1100
     40 H40       -10.0945   -0.0427   55.7338 H       1  ZINC000992031068    0.1500
     41 H41       -11.1328   -2.2992   56.7059 H       1  ZINC000992031068    0.1800
     42 H42       -12.7278   -2.0518   51.9034 H       1  ZINC000992031068    0.0800
     43 H43       -11.0178   -1.9901   51.4132 H       1  ZINC000992031068    0.0800
     44 H44       -11.7013   -3.4963   52.0709 H       1  ZINC000992031068    0.0900
     45 H45        -7.2257    1.5224   49.6369 H       1  ZINC000992031068    0.0900
     46 H46        -6.4347   -0.1118   49.5662 H       1  ZINC000992031068    0.0800
     47 H47         1.3184    5.6037   50.7465 H       1  ZINC000992031068    0.2100
@<TRIPOS>BOND
     1     1     2    1
     2     1    26    1
     3     1    27    1
     4     1    28    1
     5     2    25   ar
     6     2     3   ar
     7     3     4   ar
     8     3    29    1
     9     4     5    1
    10     4    23   ar
    11     5     6    2
    12     5     7   am
    13     7     8    1
    14     7    30    1
    15     8     9    1
    16     8    31    1
    17     8    32    1
    18     9    22    1
    19     9    10    1
    20     9    33    1
    21    10    11    1
    22    10    34    1
    23    10    35    1
    24    11    12    1
    25    11    22    1
    26    11    36    1
    27    12    13   am
    28    12    37    1
    29    13    14    2
    30    13    15    1
    31    15    16    1
    32    15    38    1
    33    15    39    1
    34    16    20    1
    35    16    17    2
    36    17    18    1
    37    17    40    1
    38    18    19    2
    39    18    41    1
    40    19    20    1
    41    20    21    1
    42    21    42    1
    43    21    43    1
    44    21    44    1
    45    22    45    1
    46    22    46    1
    47    23    24   ar
    48    24    25   ar
    49    24    47    1
@<TRIPOS>SUBSTRUCTURE
     1 ZINC000992031068        1 TEMP              0 ****  ****    0 ROOT


##########                                Name:    ZINC000611836474
##########                DOCK_Rotatable_Bonds:                   7
##########                         Heavy_Atoms:                  22
##########                    Molecular_Weight:             366.258
##########                DOCK_Rotatable_Bonds:                   7
##########                       Formal_Charge:          -0.0300004
##########                     HBond_Acceptors:                   5
##########                        HBond_Donors:                   1
##########                         Heavy_Atoms:                  22
##########                          Grid_Score:          -34.220047
##########                     Grid_vdw_energy:          -32.700497
##########                      Grid_es_energy:           -1.519551
##########           Internal_energy_repulsive:            7.039259

@<TRIPOS>MOLECULE
ZINC000611836474
 42 43 1 0 0
SMALL
USER_CHARGES


@<TRIPOS>ATOM
      1 C1        -10.8354   -3.5068   57.7742 C.3     1  ZINC000611836474   -0.1500
      2 C2        -11.3818   -3.4865   56.3451 C.3     1  ZINC000611836474   -0.1400
      3 C3        -11.3507   -2.0544   55.8075 C.3     1  ZINC000611836474    0.1300
      4 N4        -11.9002   -2.0305   54.4497 N.pl3   1  ZINC000611836474   -0.3900
      5 N5        -12.9642   -2.8095   53.9772 N.2     1  ZINC000611836474   -0.2900
      6 C6        -13.1673   -2.5109   52.7197 C.2     1  ZINC000611836474    0.0600
      7 C7        -12.2422   -1.5326   52.3453 C.2     1  ZINC000611836474   -0.2800
      8 C8        -11.4737   -1.2482   53.4321 C.2     1  ZINC000611836474    0.3000
      9 N9        -10.4306   -0.3239   53.4847 N.am    1  ZINC000611836474   -0.6500
     10 C10        -9.2762   -0.5729   52.8351 C.2     1  ZINC000611836474    0.5200
     11 O11        -9.1450   -1.6001   52.2035 O.2     1  ZINC000611836474   -0.4700
     12 C12        -8.1484    0.4250   52.8934 C.3     1  ZINC000611836474    0.0700
     13 H13        -7.2148   -0.0941   53.1105 H       1  ZINC000611836474    0.1100
     14 C14        -8.4302    1.4495   53.9942 C.3     1  ZINC000611836474   -0.1800
     15 O15        -8.0397    1.0949   51.6358 O.3     1  ZINC000611836474   -0.2700
     16 C16        -6.7915    1.2322   51.1157 C.ar    1  ZINC000611836474    0.1500
     17 C17        -6.0722    0.1108   50.7307 C.ar    1  ZINC000611836474   -0.2000
     18 C18        -4.8032    0.2528   50.2023 C.ar    1  ZINC000611836474   -0.0600
     19 C19        -4.2501    1.5114   50.0575 C.ar    1  ZINC000611836474   -0.1100
     20 C20        -2.8659    1.6629   49.4813 C.3     1  ZINC000611836474   -0.1100
     21 C21        -4.9649    2.6317   50.4399 C.ar    1  ZINC000611836474   -0.0500
     22 C22        -6.2366    2.4957   50.9636 C.ar    1  ZINC000611836474   -0.1200
     23 Br23       -7.2138    4.0277   51.4867 Br      1  ZINC000611836474   -0.0300
     24 H24       -10.8577   -4.5270   58.1571 H       1  ZINC000611836474    0.0600
     25 H25        -9.8090   -3.1403   57.7759 H       1  ZINC000611836474    0.0600
     26 H26       -11.4507   -2.8675   58.4074 H       1  ZINC000611836474    0.0600
     27 H27       -10.7666   -4.1258   55.7119 H       1  ZINC000611836474    0.0800
     28 H28       -12.4083   -3.8531   56.3434 H       1  ZINC000611836474    0.0600
     29 H29       -11.9488   -1.4110   56.4529 H       1  ZINC000611836474    0.0800
     30 H30       -10.3217   -1.6954   55.7894 H       1  ZINC000611836474    0.1000
     31 H31       -13.9208   -2.9464   52.0801 H       1  ZINC000611836474    0.1900
     32 H32       -12.1548   -1.0803   51.3685 H       1  ZINC000611836474    0.1700
     33 H33       -10.5358    0.4982   53.9887 H       1  ZINC000611836474    0.4100
     34 H34        -8.5131    0.9385   54.9534 H       1  ZINC000611836474    0.0800
     35 H35        -7.6144    2.1712   54.0363 H       1  ZINC000611836474    0.0800
     36 H36        -9.3637    1.9685   53.7771 H       1  ZINC000611836474    0.0800
     37 H37        -6.5033   -0.8730   50.8442 H       1  ZINC000611836474    0.1400
     38 H38        -4.2429   -0.6204   49.9024 H       1  ZINC000611836474    0.1300
     39 H39        -2.9325    1.7667   48.3982 H       1  ZINC000611836474    0.0700
     40 H40        -2.3919    2.5493   49.9028 H       1  ZINC000611836474    0.0700
     41 H41        -2.2721    0.7822   49.7260 H       1  ZINC000611836474    0.0700
     42 H42        -4.5306    3.6139   50.3258 H       1  ZINC000611836474    0.1400
@<TRIPOS>BOND
     1     1     2    1
     2     1    24    1
     3     1    25    1
     4     1    26    1
     5     2     3    1
     6     2    27    1
     7     2    28    1
     8     3     4    1
     9     3    29    1
    10     3    30    1
    11     4     8    1
    12     4     5    1
    13     5     6    2
    14     6     7    1
    15     6    31    1
    16     7     8    2
    17     7    32    1
    18     8     9    1
    19     9    10   am
    20     9    33    1
    21    10    11    2
    22    10    12    1
    23    12    13    1
    24    12    14    1
    25    12    15    1
    26    14    34    1
    27    14    35    1
    28    14    36    1
    29    15    16    1
    30    16    22   ar
    31    16    17   ar
    32    17    18   ar
    33    17    37    1
    34    18    19   ar
    35    18    38    1
    36    19    20    1
    37    19    21   ar
    38    20    39    1
    39    20    40    1
    40    20    41    1
    41    21    22   ar
    42    21    42    1
    43    22    23    1
@<TRIPOS>SUBSTRUCTURE
     1 ZINC000611836474        1 TEMP              0 ****  ****    0 ROOT


##########                                Name:    ZINC000266467123
##########                DOCK_Rotatable_Bonds:                   9
##########                         Heavy_Atoms:                  25
##########                    Molecular_Weight:             337.421
##########                DOCK_Rotatable_Bonds:                   9
##########                       Formal_Charge:                0.02
##########                     HBond_Acceptors:                   5
##########                        HBond_Donors:                   3
##########                         Heavy_Atoms:                  25
##########                          Grid_Score:          -34.217354
##########                     Grid_vdw_energy:          -28.235178
##########                      Grid_es_energy:           -5.982175
##########           Internal_energy_repulsive:           10.251169

@<TRIPOS>MOLECULE
ZINC000266467123
 48 50 1 0 0
SMALL
USER_CHARGES


@<TRIPOS>ATOM
      1 C1         -9.1146   -3.1989   59.5556 C.3     1  <0>        -0.1600
      2 C2        -10.0978   -2.0481   59.3322 C.3     1  <0>         0.1500
      3 H3        -11.0071   -2.4318   58.8698 H       1  <0>         0.1200
      4 N4         -9.4873   -1.0480   58.4528 N.am    1  <0>        -0.7300
      5 C5        -10.2003   -0.5154   57.4407 C.2     1  <0>         0.7100
      6 O6        -11.3508   -0.8640   57.2584 O.2     1  <0>        -0.5900
      7 N7         -9.6381    0.4034   56.6308 N.am    1  <0>        -0.7100
      8 C8        -10.4137    0.9836   55.5317 C.3     1  <0>         0.1100
      9 H9        -11.3507    1.4613   55.8184 H       1  <0>         0.1400
     10 C10       -10.3710    0.2660   54.1811 C.3     1  <0>        -0.1900
     11 C11        -9.6365    1.5964   54.3650 C.3     1  <0>        -0.1500
     12 H12       -10.0621    2.4770   53.8839 H       1  <0>         0.1200
     13 C13        -8.1086    1.5561   54.4346 C.3     1  <0>        -0.0500
     14 C14        -7.5324    2.1749   53.1870 C.ar    1  <0>        -0.0800
     15 C15        -8.2473    2.1395   52.0044 C.ar    1  <0>        -0.1100
     16 C16        -7.7188    2.7072   50.8602 C.ar    1  <0>        -0.1200
     17 C17        -6.4757    3.3105   50.8986 C.ar    1  <0>        -0.1200
     18 C18        -5.7612    3.3467   52.0815 C.ar    1  <0>        -0.1200
     19 C19        -6.2916    2.7829   53.2268 C.ar    1  <0>        -0.1200
     20 C20       -10.4368   -1.4130   60.6561 C.2     1  <0>         0.5100
     21 O21       -11.5110   -1.6302   61.1756 O.2     1  <0>        -0.5100
     22 N22        -9.5461   -0.6036   61.2628 N.am    1  <0>        -0.6700
     23 C23        -9.8609   -0.0138   62.4921 C.ar    1  <0>         0.1400
     24 C24        -9.0791   -0.2753   63.6097 C.ar    1  <0>        -0.1400
     25 C25        -9.3924    0.3084   64.8217 C.ar    1  <0>        -0.1000
     26 C26       -10.4834    1.1519   64.9231 C.ar    1  <0>        -0.1300
     27 C27       -11.2641    1.4138   63.8122 C.ar    1  <0>        -0.1000
     28 C28       -10.9523    0.8386   62.5958 C.ar    1  <0>        -0.1200
     29 H29        -9.5687   -3.9431   60.2098 H       1  <0>         0.0700
     30 H30        -8.8693   -3.6584   58.5980 H       1  <0>         0.0800
     31 H31        -8.2051   -2.8153   60.0180 H       1  <0>         0.0700
     32 H32        -8.5698   -0.7691   58.5991 H       1  <0>         0.4100
     33 H33        -8.7199    0.6805   56.7756 H       1  <0>         0.4000
     34 H34        -9.7657   -0.6377   54.1102 H       1  <0>         0.1000
     35 H35       -11.2796    0.2720   53.5790 H       1  <0>         0.1000
     36 H36        -7.7698    2.1147   55.3070 H       1  <0>         0.0800
     37 H37        -7.7757    0.5213   54.5139 H       1  <0>         0.0700
     38 H38        -9.2185    1.6681   51.9744 H       1  <0>         0.1200
     39 H39        -8.2770    2.6789   49.9360 H       1  <0>         0.1200
     40 H40        -6.0625    3.7534   50.0045 H       1  <0>         0.1200
     41 H41        -4.7899    3.8179   52.1114 H       1  <0>         0.1200
     42 H42        -5.7334    2.8111   54.1509 H       1  <0>         0.1200
     43 H43        -8.6871   -0.4299   60.8474 H       1  <0>         0.4100
     44 H44        -8.2273   -0.9345   63.5314 H       1  <0>         0.1300
     45 H45        -8.7848    0.1054   65.6912 H       1  <0>         0.1300
     46 H46       -10.7266    1.6068   65.8719 H       1  <0>         0.1200
     47 H47       -12.1160    2.0725   63.8947 H       1  <0>         0.1300
     48 H48       -11.5624    1.0435   61.7286 H       1  <0>         0.1400
@<TRIPOS>BOND
     1     1     2    1
     2     1    29    1
     3     1    30    1
     4     1    31    1
     5     2     3    1
     6     2     4    1
     7     2    20    1
     8     4     5   am
     9     4    32    1
    10     5     6    2
    11     5     7   am
    12     7     8    1
    13     7    33    1
    14     8     9    1
    15     8    11    1
    16     8    10    1
    17    10    11    1
    18    10    34    1
    19    10    35    1
    20    11    12    1
    21    11    13    1
    22    13    14    1
    23    13    36    1
    24    13    37    1
    25    14    19   ar
    26    14    15   ar
    27    15    16   ar
    28    15    38    1
    29    16    17   ar
    30    16    39    1
    31    17    18   ar
    32    17    40    1
    33    18    19   ar
    34    18    41    1
    35    19    42    1
    36    20    21    2
    37    20    22   am
    38    22    23    1
    39    22    43    1
    40    23    28   ar
    41    23    24   ar
    42    24    25   ar
    43    24    44    1
    44    25    26   ar
    45    25    45    1
    46    26    27   ar
    47    26    46    1
    48    27    28   ar
    49    27    47    1
    50    28    48    1
@<TRIPOS>SUBSTRUCTURE
     1 <0>         1 TEMP              0 ****  ****    0 ROOT


##########                                Name:    ZINC000516003207
##########                DOCK_Rotatable_Bonds:                   5
##########                         Heavy_Atoms:                  24
##########                    Molecular_Weight:             342.462
##########                DOCK_Rotatable_Bonds:                   5
##########                       Formal_Charge:          -0.0200001
##########                     HBond_Acceptors:                   5
##########                        HBond_Donors:                   1
##########                         Heavy_Atoms:                  24
##########                          Grid_Score:          -34.210129
##########                     Grid_vdw_energy:          -33.821423
##########                      Grid_es_energy:           -0.388708
##########           Internal_energy_repulsive:            8.830743

@<TRIPOS>MOLECULE
ZINC000516003207
 46 49 1 0 0
SMALL
USER_CHARGES


@<TRIPOS>ATOM
      1 C1         -2.0444    2.0764   49.0222 C.3     1  ZINC000516003207    0.0300
      2 O2         -2.9766    1.6219   50.0054 O.3     1  ZINC000516003207   -0.3600
      3 C3         -4.2235    2.3196   49.9903 C.3     1  ZINC000516003207    0.0900
      4 H4         -4.2438    3.1360   49.2685 H       1  ZINC000516003207    0.0800
      5 C5         -5.4496    1.3921   49.9088 C.3     1  ZINC000516003207   -0.1700
      6 C6         -5.4415    1.3667   51.4481 C.3     1  ZINC000516003207    0.1500
      7 H7         -4.8328    0.5668   51.8693 H       1  ZINC000516003207    0.1200
      8 N8         -6.7778    1.4401   52.0444 N.am    1  ZINC000516003207   -0.7200
      9 C9         -7.4955    0.3145   52.2300 C.2     1  ZINC000516003207    0.5600
     10 O10        -7.0336   -0.7615   51.9040 O.2     1  ZINC000516003207   -0.5300
     11 C11        -8.8448    0.3886   52.8301 C.ar    1  ZINC000516003207   -0.1400
     12 C12        -9.3280    1.6044   53.3177 C.ar    1  ZINC000516003207   -0.0800
     13 C13       -10.5877    1.6740   53.8786 C.ar    1  ZINC000516003207   -0.1200
     14 C14       -11.3769    0.5436   53.9606 C.ar    1  ZINC000516003207   -0.0800
     15 C15       -10.9058   -0.6768   53.4767 C.ar    1  ZINC000516003207   -0.0300
     16 C16       -11.7558   -1.8895   53.5661 C.2     1  ZINC000516003207    0.1100
     17 C17       -11.4180   -3.0655   52.9998 C.2     1  ZINC000516003207   -0.2600
     18 S18       -12.6995   -4.2224   53.3503 S.3     1  ZINC000516003207    0.1400
     19 C19       -13.5599   -3.0266   54.2169 C.2     1  ZINC000516003207    0.0600
     20 C20       -14.8884   -3.2452   54.8940 C.3     1  ZINC000516003207   -0.0800
     21 N21       -12.9113   -1.9138   54.2144 N.2     1  ZINC000516003207   -0.4700
     22 C22        -9.6399   -0.7538   52.9054 C.ar    1  ZINC000516003207   -0.0300
     23 C23        -4.7211    2.7172   51.3805 C.3     1  ZINC000516003207   -0.1100
     24 C24        -3.7468    3.1494   52.4769 C.3     1  ZINC000516003207   -0.1200
     25 C25        -4.1494    4.5974   52.1435 C.3     1  ZINC000516003207   -0.1400
     26 C26        -5.4753    4.0279   51.6070 C.3     1  ZINC000516003207   -0.1200
     27 H27        -1.8249    3.1309   49.1897 H       1  ZINC000516003207    0.0400
     28 H28        -1.1242    1.4972   49.0988 H       1  ZINC000516003207    0.0900
     29 H29        -2.4730    1.9478   48.0283 H       1  ZINC000516003207    0.0400
     30 H30        -6.3320    1.8719   49.4853 H       1  ZINC000516003207    0.0900
     31 H31        -5.2349    0.4244   49.4556 H       1  ZINC000516003207    0.0800
     32 H32        -7.1458    2.2986   52.3057 H       1  ZINC000516003207    0.4000
     33 H33        -8.7155    2.4917   53.2563 H       1  ZINC000516003207    0.1300
     34 H34       -10.9574    2.6164   54.2552 H       1  ZINC000516003207    0.1400
     35 H35       -12.3612    0.6046   54.4009 H       1  ZINC000516003207    0.1300
     36 H36       -10.5209   -3.2630   52.4318 H       1  ZINC000516003207    0.1800
     37 H37       -15.2077   -4.2764   54.7431 H       1  ZINC000516003207    0.0800
     38 H38       -14.7889   -3.0481   55.9614 H       1  ZINC000516003207    0.0900
     39 H39       -15.6293   -2.5692   54.4672 H       1  ZINC000516003207    0.0900
     40 H40        -9.2711   -1.6967   52.5295 H       1  ZINC000516003207    0.1500
     41 H41        -4.0441    2.8317   53.4763 H       1  ZINC000516003207    0.0800
     42 H42        -2.7050    2.9218   52.2510 H       1  ZINC000516003207    0.0800
     43 H43        -4.2706    5.2297   53.0229 H       1  ZINC000516003207    0.0700
     44 H44        -3.5288    5.0563   51.3738 H       1  ZINC000516003207    0.0800
     45 H45        -5.8144    4.5022   50.6860 H       1  ZINC000516003207    0.0700
     46 H46        -6.2584    3.9572   52.3619 H       1  ZINC000516003207    0.0900
@<TRIPOS>BOND
     1     1     2    1
     2     1    27    1
     3     1    28    1
     4     1    29    1
     5     2     3    1
     6     3     4    1
     7     3    23    1
     8     3     5    1
     9     5     6    1
    10     5    30    1
    11     5    31    1
    12     6     7    1
    13     6     8    1
    14     6    23    1
    15     8     9   am
    16     8    32    1
    17     9    10    2
    18     9    11    1
    19    11    22   ar
    20    11    12   ar
    21    12    13   ar
    22    12    33    1
    23    13    14   ar
    24    13    34    1
    25    14    15   ar
    26    14    35    1
    27    15    16    1
    28    15    22   ar
    29    16    21    1
    30    16    17    2
    31    17    18    1
    32    17    36    1
    33    18    19    1
    34    19    20    1
    35    19    21    2
    36    20    37    1
    37    20    38    1
    38    20    39    1
    39    22    40    1
    40    23    26    1
    41    23    24    1
    42    24    25    1
    43    24    41    1
    44    24    42    1
    45    25    26    1
    46    25    43    1
    47    25    44    1
    48    26    45    1
    49    26    46    1
@<TRIPOS>SUBSTRUCTURE
     1 ZINC000516003207        1 TEMP              0 ****  ****    0 ROOT


##########                                Name:    ZINC000439870054
##########                DOCK_Rotatable_Bonds:                   5
##########                         Heavy_Atoms:                  27
##########                    Molecular_Weight:             421.974
##########                DOCK_Rotatable_Bonds:                   5
##########                       Formal_Charge:           0.0200003
##########                     HBond_Acceptors:                   9
##########                        HBond_Donors:                   0
##########                         Heavy_Atoms:                  27
##########                          Grid_Score:          -34.174644
##########                     Grid_vdw_energy:          -33.172237
##########                      Grid_es_energy:           -1.002407
##########           Internal_energy_repulsive:           64.817558

@<TRIPOS>MOLECULE
ZINC000439870054
 47 50 1 0 0
SMALL
USER_CHARGES


@<TRIPOS>ATOM
      1 C1          1.2527    3.9359   48.3893 C.3     1  ZINC000439870054   -0.1400
      2 C2          0.1824    2.8594   48.5804 C.3     1  ZINC000439870054    0.0000
      3 C3          0.8350    1.4765   48.5291 C.3     1  ZINC000439870054   -0.1400
      4 C4         -0.4880    3.0492   49.9167 C.2     1  ZINC000439870054    0.1900
      5 N5          0.0272    3.6315   50.9688 N.2     1  ZINC000439870054   -0.2900
      6 N6         -0.8244    3.6148   51.9366 N.2     1  ZINC000439870054   -0.2700
      7 C7         -1.9105    3.0230   51.5455 C.2     1  ZINC000439870054    0.1600
      8 C8         -3.1733    2.7551   52.3282 C.3     1  ZINC000439870054    0.2400
      9 H9         -2.9910    1.9830   53.0756 H       1  ZINC000439870054    0.1100
     10 C10        -3.6473    4.0400   53.0102 C.3     1  ZINC000439870054   -0.1300
     11 N11        -4.1880    2.2918   51.3627 N.am    1  ZINC000439870054   -0.6300
     12 C12        -5.4557    2.7457   51.4181 C.2     1  ZINC000439870054    0.5300
     13 O13        -5.7762    3.5469   52.2703 O.2     1  ZINC000439870054   -0.4900
     14 C14        -6.4749    2.2580   50.4210 C.3     1  ZINC000439870054   -0.0700
     15 C15        -7.8539    2.6659   50.8718 C.2     1  ZINC000439870054    0.0900
     16 C16        -8.3250    2.3549   52.0829 C.2     1  ZINC000439870054   -0.2400
     17 S17        -9.9572    3.0044   52.2248 S.3     1  ZINC000439870054    0.1300
     18 C18        -9.8382    3.6490   50.5895 C.2     1  ZINC000439870054    0.1400
     19 C19       -10.8896    4.4039   49.8907 C.2     1  ZINC000439870054   -0.1300
     20 C20       -12.0988    4.7164   50.4056 C.2     1  ZINC000439870054   -0.1000
     21 C21       -12.9173    5.4322   49.5589 C.2     1  ZINC000439870054   -0.1200
     22 C22       -12.3906    5.7075   48.3595 C.2     1  ZINC000439870054   -0.1500
     23 Cl23      -13.1901    6.5905   47.0966 Cl      1  ZINC000439870054    0.0000
     24 S24       -10.7644    5.0462   48.2580 S.3     1  ZINC000439870054    0.2500
     25 N25        -8.6650    3.3537   50.1002 N.2     1  ZINC000439870054   -0.4400
     26 C26        -3.7765    1.3205   50.3376 C.3     1  ZINC000439870054    0.0900
     27 C27        -2.7226    1.9622   49.4275 C.3     1  ZINC000439870054    0.0900
     28 N28        -1.7333    2.6562   50.2507 N.pl3   1  ZINC000439870054   -0.4700
     29 H29         1.7376    3.7986   47.4228 H       1  ZINC000439870054    0.0700
     30 H30         0.7877    4.9211   48.4258 H       1  ZINC000439870054    0.0500
     31 H31         1.9953    3.8548   49.1831 H       1  ZINC000439870054    0.0700
     32 H32        -0.5602    2.9403   47.7867 H       1  ZINC000439870054    0.0800
     33 H33         0.0725    0.7096   48.6653 H       1  ZINC000439870054    0.0500
     34 H34         1.3199    1.3392   47.5626 H       1  ZINC000439870054    0.0700
     35 H35         1.5776    1.3956   49.3229 H       1  ZINC000439870054    0.0700
     36 H36        -3.9852    4.7492   52.2546 H       1  ZINC000439870054    0.0600
     37 H37        -4.4707    3.8100   53.6865 H       1  ZINC000439870054    0.0900
     38 H38        -2.8239    4.4763   53.5757 H       1  ZINC000439870054    0.0700
     39 H39        -6.2673    2.6967   49.4449 H       1  ZINC000439870054    0.1100
     40 H40        -6.4225    1.1716   50.3497 H       1  ZINC000439870054    0.1200
     41 H41        -7.7963    1.8003   52.8441 H       1  ZINC000439870054    0.1800
     42 H42       -12.4004    4.4278   51.4016 H       1  ZINC000439870054    0.1500
     43 H43       -13.9107    5.7475   49.8421 H       1  ZINC000439870054    0.1600
     44 H44        -3.3532    0.4395   50.8200 H       1  ZINC000439870054    0.0900
     45 H45        -4.6427    1.0300   49.7431 H       1  ZINC000439870054    0.1200
     46 H46        -2.2310    1.1885   48.8378 H       1  ZINC000439870054    0.1100
     47 H47        -3.2039    2.6784   48.7614 H       1  ZINC000439870054    0.0900
@<TRIPOS>BOND
     1     1     2    1
     2     1    29    1
     3     1    30    1
     4     1    31    1
     5     2     3    1
     6     2     4    1
     7     2    32    1
     8     3    33    1
     9     3    34    1
    10     3    35    1
    11     4    28    1
    12     4     5    2
    13     5     6    1
    14     6     7    2
    15     7    28    1
    16     7     8    1
    17     8     9    1
    18     8    10    1
    19     8    11    1
    20    10    36    1
    21    10    37    1
    22    10    38    1
    23    11    12   am
    24    11    26    1
    25    12    13    2
    26    12    14    1
    27    14    15    1
    28    14    39    1
    29    14    40    1
    30    15    25    1
    31    15    16    2
    32    16    17    1
    33    16    41    1
    34    17    18    1
    35    18    19    1
    36    18    25    2
    37    19    24    1
    38    19    20    2
    39    20    21    1
    40    20    42    1
    41    21    22    2
    42    21    43    1
    43    22    23    1
    44    22    24    1
    45    26    27    1
    46    26    44    1
    47    26    45    1
    48    27    28    1
    49    27    46    1
    50    27    47    1
@<TRIPOS>SUBSTRUCTURE
     1 ZINC000439870054        1 TEMP              0 ****  ****    0 ROOT


##########                                Name:    ZINC000599228306
##########                DOCK_Rotatable_Bonds:                   8
##########                         Heavy_Atoms:                  25
##########                    Molecular_Weight:             379.382
##########                DOCK_Rotatable_Bonds:                   8
##########                       Formal_Charge:        -4.09782e-08
##########                     HBond_Acceptors:                  10
##########                        HBond_Donors:                   1
##########                         Heavy_Atoms:                  25
##########                          Grid_Score:          -34.167858
##########                     Grid_vdw_energy:          -32.944290
##########                      Grid_es_energy:           -1.223567
##########           Internal_energy_repulsive:           23.084772

@<TRIPOS>MOLECULE
ZINC000599228306
 44 44 1 0 0
SMALL
USER_CHARGES


@<TRIPOS>ATOM
      1 C1         -1.6623    1.8451   49.6996 C.3     1  ZINC000599228306    0.0400
      2 O2         -2.8708    1.0676   49.9073 O.3     1  ZINC000599228306   -0.3500
      3 C3         -4.0347    1.6351   49.5351 C.2     1  ZINC000599228306    0.5100
      4 O4         -4.0526    2.4494   48.6337 O.2     1  ZINC000599228306   -0.4800
      5 C5         -5.2878    1.2675   50.2224 C.ar    1  ZINC000599228306   -0.1500
      6 C6         -5.6769   -0.0714   50.3037 C.ar    1  ZINC000599228306   -0.0100
      7 C7         -6.8508   -0.4080   50.9483 C.ar    1  ZINC000599228306    0.0700
      8 F8         -7.2285   -1.7027   51.0278 F       1  ZINC000599228306   -0.1200
      9 C9         -7.6425    0.5790   51.5146 C.ar    1  ZINC000599228306    0.0100
     10 C10        -7.2642    1.9065   51.4383 C.ar    1  ZINC000599228306   -0.7100
     11 S11        -8.2783    3.1524   52.1622 S.o2    1  ZINC000599228306    2.7000
     12 O12        -7.4359    3.9038   53.0254 O.2     1  ZINC000599228306   -0.9200
     13 O13        -9.0192    3.7348   51.0988 O.2     1  ZINC000599228306   -0.9300
     14 N14        -9.3786    2.3855   53.1337 N.am    1  ZINC000599228306   -1.1000
     15 C15        -8.9178    1.5600   54.2527 C.3     1  ZINC000599228306    0.1600
     16 H16        -8.0153    1.0231   53.9605 H       1  ZINC000599228306    0.1300
     17 C17        -8.6118    2.4555   55.4549 C.3     1  ZINC000599228306   -0.1700
     18 C18        -9.9928    0.5711   54.6235 C.2     1  ZINC000599228306    0.4700
     19 O19       -10.8814    0.8979   55.3742 O.2     1  ZINC000599228306   -0.4900
     20 O20        -9.9631   -0.6727   54.1199 O.3     1  ZINC000599228306   -0.3400
     21 C21       -11.1525   -1.1309   53.4244 C.3     1  ZINC000599228306    0.1200
     22 C22       -12.1906   -1.6015   54.4450 C.3     1  ZINC000599228306   -0.1900
     23 C23       -11.7342    0.0175   52.5977 C.3     1  ZINC000599228306   -0.1400
     24 C24       -10.7859   -2.2918   52.4975 C.3     1  ZINC000599228306   -0.1800
     25 C25        -6.0889    2.2580   50.8007 C.ar    1  ZINC000599228306    0.2500
     26 F26        -5.7202    3.5557   50.7273 F       1  ZINC000599228306   -0.0900
     27 H27        -0.7993    1.2735   50.0411 H       1  ZINC000599228306    0.1100
     28 H28        -1.5525    2.0697   48.6386 H       1  ZINC000599228306    0.0700
     29 H29        -1.7277    2.7760   50.2630 H       1  ZINC000599228306    0.0700
     30 H30        -5.0613   -0.8417   49.8631 H       1  ZINC000599228306    0.1700
     31 H31        -8.5595    0.3098   52.0175 H       1  ZINC000599228306    0.1800
     32 H32       -10.3282    2.4831   52.9617 H       1  ZINC000599228306    0.4300
     33 H33        -8.2689    1.8412   56.2876 H       1  ZINC000599228306    0.0900
     34 H34        -7.8342    3.1707   55.1867 H       1  ZINC000599228306    0.0700
     35 H35        -9.5143    2.9924   55.7471 H       1  ZINC000599228306    0.0800
     36 H36       -12.4518   -0.7746   55.1054 H       1  ZINC000599228306    0.0600
     37 H37       -13.0834   -1.9456   53.9230 H       1  ZINC000599228306    0.0700
     38 H38       -11.7762   -2.4198   55.0340 H       1  ZINC000599228306    0.0800
     39 H39       -10.9947    0.3528   51.8706 H       1  ZINC000599228306    0.0700
     40 H40       -12.6271   -0.3265   52.0756 H       1  ZINC000599228306    0.0800
     41 H41       -11.9955    0.8446   53.2580 H       1  ZINC000599228306    0.0700
     42 H42       -10.3715   -3.1100   53.0865 H       1  ZINC000599228306    0.0800
     43 H43       -11.6787   -2.6358   51.9754 H       1  ZINC000599228306    0.0700
     44 H44       -10.0463   -1.9565   51.7704 H       1  ZINC000599228306    0.0600
@<TRIPOS>BOND
     1     1     2    1
     2     1    27    1
     3     1    28    1
     4     1    29    1
     5     2     3    1
     6     3     4    2
     7     3     5    1
     8     5    25   ar
     9     5     6   ar
    10     6     7   ar
    11     6    30    1
    12     7     8    1
    13     7     9   ar
    14     9    10   ar
    15     9    31    1
    16    10    11    1
    17    10    25   ar
    18    11    12    2
    19    11    13    2
    20    11    14   am
    21    14    15    1
    22    14    32    1
    23    15    16    1
    24    15    17    1
    25    15    18    1
    26    17    33    1
    27    17    34    1
    28    17    35    1
    29    18    19    2
    30    18    20    1
    31    20    21    1
    32    21    22    1
    33    21    23    1
    34    21    24    1
    35    22    36    1
    36    22    37    1
    37    22    38    1
    38    23    39    1
    39    23    40    1
    40    23    41    1
    41    24    42    1
    42    24    43    1
    43    24    44    1
    44    25    26    1
@<TRIPOS>SUBSTRUCTURE
     1 ZINC000599228306        1 TEMP              0 ****  ****    0 ROOT


##########                                Name:    ZINC001109404798
##########                DOCK_Rotatable_Bonds:                   7
##########                         Heavy_Atoms:                  25
##########                    Molecular_Weight:              360.48
##########                DOCK_Rotatable_Bonds:                   7
##########                       Formal_Charge:           0.0100002
##########                     HBond_Acceptors:                   7
##########                        HBond_Donors:                   1
##########                         Heavy_Atoms:                  25
##########                          Grid_Score:          -34.162251
##########                     Grid_vdw_energy:          -33.826321
##########                      Grid_es_energy:           -0.335930
##########           Internal_energy_repulsive:           28.338308

@<TRIPOS>MOLECULE
ZINC001109404798
 49 52 1 0 0
SMALL
USER_CHARGES


@<TRIPOS>ATOM
      1 C1         -9.1495   -2.9856   60.0760 C.3     1  ZINC001109404798   -0.0600
      2 C2        -10.0355   -3.6720   59.0685 C.2     1  ZINC001109404798    0.1700
      3 N3         -9.8860   -4.8780   58.6083 N.2     1  ZINC001109404798   -0.3900
      4 O4        -10.7642   -5.1356   57.8123 O.3     1  ZINC001109404798    0.1000
      5 C5        -11.5823   -4.0864   57.6852 C.2     1  ZINC001109404798    0.1900
      6 C6        -12.7963   -3.9973   56.7969 C.3     1  ZINC001109404798    0.1600
      7 H7        -13.4569   -3.2110   57.1621 H       1  ZINC001109404798    0.1000
      8 C8        -13.5388   -5.3351   56.8122 C.3     1  ZINC001109404798   -0.1500
      9 N9        -12.3767   -3.6860   55.4239 N.3     1  ZINC001109404798   -0.4800
     10 C10       -11.7387   -2.3232   55.3503 C.3     1  ZINC001109404798    0.0400
     11 H11       -10.8162   -2.1986   55.9175 H       1  ZINC001109404798    0.1100
     12 C12       -12.9262   -1.4140   55.7884 C.3     1  ZINC001109404798   -0.1600
     13 C13       -14.1705   -2.1546   55.2401 C.3     1  ZINC001109404798   -0.1600
     14 C14       -13.5685   -3.4124   54.5440 C.3     1  ZINC001109404798    0.0400
     15 H15       -14.2563   -4.2460   54.4017 H       1  ZINC001109404798    0.1200
     16 C16       -12.8895   -2.8718   53.2496 C.3     1  ZINC001109404798    0.1500
     17 H17       -12.5931   -3.6949   52.5994 H       1  ZINC001109404798    0.1000
     18 N18       -13.7855   -1.9542   52.5417 N.am    1  ZINC001109404798   -0.7200
     19 C19       -13.5134   -1.5920   51.2724 C.2     1  ZINC001109404798    0.5100
     20 O20       -12.5276   -2.0268   50.7156 O.2     1  ZINC001109404798   -0.5300
     21 C21       -14.4343   -0.6466   50.5447 C.3     1  ZINC001109404798   -0.1300
     22 C22       -14.3980   -0.9518   49.0459 C.3     1  ZINC001109404798   -0.0400
     23 C23       -15.3182   -0.0060   48.3181 C.2     1  ZINC001109404798   -0.1000
     24 C24       -15.5624    1.2320   48.7504 C.2     1  ZINC001109404798   -0.2100
     25 S25       -16.6771    2.0318   47.6497 S.3     1  ZINC001109404798    0.1000
     26 C26       -16.7507    0.5975   46.6344 C.2     1  ZINC001109404798   -0.2100
     27 C27       -15.9693   -0.3541   47.1473 C.2     1  ZINC001109404798   -0.1300
     28 C28       -11.6109   -2.1369   53.8083 C.3     1  ZINC001109404798   -0.1100
     29 N29       -11.1295   -3.1510   58.4850 N.2     1  ZINC001109404798   -0.4800
     30 H30        -9.5179   -3.1882   61.0816 H       1  ZINC001109404798    0.0900
     31 H31        -8.1308   -3.3614   59.9797 H       1  ZINC001109404798    0.0900
     32 H32        -9.1588   -1.9108   59.8953 H       1  ZINC001109404798    0.0900
     33 H33       -13.8501   -5.5661   57.8310 H       1  ZINC001109404798    0.0700
     34 H34       -14.4169   -5.2706   56.1697 H       1  ZINC001109404798    0.0800
     35 H35       -12.8782   -6.1215   56.4471 H       1  ZINC001109404798    0.0800
     36 H36       -12.9719   -1.3394   56.8749 H       1  ZINC001109404798    0.0700
     37 H37       -12.8388   -0.4253   55.3381 H       1  ZINC001109404798    0.0800
     38 H38       -14.8329   -2.4471   56.0548 H       1  ZINC001109404798    0.0700
     39 H39       -14.6999   -1.5329   54.5181 H       1  ZINC001109404798    0.0800
     40 H40       -14.5746   -1.6073   52.9865 H       1  ZINC001109404798    0.4000
     41 H41       -15.4512   -0.7717   50.9165 H       1  ZINC001109404798    0.0900
     42 H42       -14.1091    0.3799   50.7144 H       1  ZINC001109404798    0.1000
     43 H43       -13.3808   -0.8271   48.6743 H       1  ZINC001109404798    0.0800
     44 H44       -14.7236   -1.9781   48.8761 H       1  ZINC001109404798    0.0800
     45 H45       -15.1407    1.6754   49.6403 H       1  ZINC001109404798    0.1600
     46 H46       -17.3354    0.5034   45.7313 H       1  ZINC001109404798    0.1600
     47 H47       -15.8592   -1.3255   46.6881 H       1  ZINC001109404798    0.1400
     48 H48       -11.6403   -1.0753   53.5623 H       1  ZINC001109404798    0.0800
     49 H49       -10.7028   -2.5971   53.4188 H       1  ZINC001109404798    0.0900
@<TRIPOS>BOND
     1     1     2    1
     2     1    30    1
     3     1    31    1
     4     1    32    1
     5     2    29    1
     6     2     3    2
     7     3     4    1
     8     4     5    1
     9     5     6    1
    10     5    29    2
    11     6     7    1
    12     6     8    1
    13     6     9    1
    14     8    33    1
    15     8    34    1
    16     8    35    1
    17     9    14    1
    18     9    10    1
    19    10    11    1
    20    10    28    1
    21    10    12    1
    22    12    13    1
    23    12    36    1
    24    12    37    1
    25    13    14    1
    26    13    38    1
    27    13    39    1
    28    14    15    1
    29    14    16    1
    30    16    17    1
    31    16    18    1
    32    16    28    1
    33    18    19   am
    34    18    40    1
    35    19    20    2
    36    19    21    1
    37    21    22    1
    38    21    41    1
    39    21    42    1
    40    22    23    1
    41    22    43    1
    42    22    44    1
    43    23    27    1
    44    23    24    2
    45    24    25    1
    46    24    45    1
    47    25    26    1
    48    26    27    2
    49    26    46    1
    50    27    47    1
    51    28    48    1
    52    28    49    1
@<TRIPOS>SUBSTRUCTURE
     1 ZINC001109404798        1 TEMP              0 ****  ****    0 ROOT


##########                                Name:    ZINC001058079801
##########                DOCK_Rotatable_Bonds:                   7
##########                         Heavy_Atoms:                  24
##########                    Molecular_Weight:             349.457
##########                DOCK_Rotatable_Bonds:                   7
##########                       Formal_Charge:           0.0200001
##########                     HBond_Acceptors:                   8
##########                        HBond_Donors:                   0
##########                         Heavy_Atoms:                  24
##########                          Grid_Score:          -34.147717
##########                     Grid_vdw_energy:          -34.386543
##########                      Grid_es_energy:            0.238825
##########           Internal_energy_repulsive:           16.675606

@<TRIPOS>MOLECULE
ZINC001058079801
 47 49 1 0 0
SMALL
USER_CHARGES


@<TRIPOS>ATOM
      1 C1          2.1408    1.7664   47.4059 C.3     1  ZINC001058079801   -0.1500
      2 C2          1.1969    2.7221   48.1385 C.3     1  ZINC001058079801   -0.1200
      3 C3          0.2810    1.9221   49.0670 C.3     1  ZINC001058079801   -0.0300
      4 C4         -0.7181    2.8501   49.7087 C.2     1  ZINC001058079801    0.2900
      5 N5         -0.3729    4.0426   50.0986 N.2     1  ZINC001058079801   -0.4800
      6 S6         -1.7777    4.7386   50.7547 S.3     1  ZINC001058079801    0.1900
      7 C7         -2.7655    3.3579   50.4602 C.2     1  ZINC001058079801    0.2700
      8 N8         -4.1079    3.2042   50.7562 N.3     1  ZINC001058079801   -0.4300
      9 C9         -4.2985    2.8547   52.1697 C.3     1  ZINC001058079801    0.0700
     10 C10        -5.7938    2.8358   52.4947 C.3     1  ZINC001058079801   -0.1300
     11 C11        -6.4932    1.8109   51.5973 C.3     1  ZINC001058079801    0.1300
     12 N12        -7.9338    1.8298   51.8632 N.am    1  ZINC001058079801   -0.6100
     13 C13        -8.7532    2.9439   51.3803 C.3     1  ZINC001058079801    0.0700
     14 C14        -8.5052    0.8221   52.5521 C.2     1  ZINC001058079801    0.5200
     15 O15        -7.8270   -0.1011   52.9506 O.2     1  ZINC001058079801   -0.5300
     16 C16        -9.9867    0.8424   52.8271 C.3     1  ZINC001058079801   -0.0600
     17 C17       -10.4858   -0.5696   52.9950 C.2     1  ZINC001058079801   -0.1900
     18 C18       -11.5226   -1.0033   53.7511 C.2     1  ZINC001058079801   -0.0400
     19 O19       -11.5850   -2.3317   53.5833 O.3     1  ZINC001058079801    0.1000
     20 N20       -10.7236   -2.7259   52.8317 N.2     1  ZINC001058079801   -0.3600
     21 C21        -9.9842   -1.7475   52.3950 C.2     1  ZINC001058079801    0.0000
     22 C22        -6.2387    2.1704   50.1309 C.3     1  ZINC001058079801   -0.1200
     23 C23        -4.7304    2.2086   49.8744 C.3     1  ZINC001058079801    0.0400
     24 N24        -1.9660    2.4832   49.8871 N.2     1  ZINC001058079801   -0.5300
     25 H25         2.7933    2.3362   46.7444 H       1  ZINC001058079801    0.0600
     26 H26         2.7448    1.2239   48.1331 H       1  ZINC001058079801    0.0600
     27 H27         1.5566    1.0582   46.8183 H       1  ZINC001058079801    0.0600
     28 H28         1.7811    3.4303   48.7261 H       1  ZINC001058079801    0.0700
     29 H29         0.5928    3.2645   47.4112 H       1  ZINC001058079801    0.0700
     30 H30        -0.2468    1.1623   48.4906 H       1  ZINC001058079801    0.1000
     31 H31         0.8790    1.4409   49.8409 H       1  ZINC001058079801    0.0900
     32 H32        -3.8727    1.8697   52.3608 H       1  ZINC001058079801    0.0600
     33 H33        -3.7998    3.5936   52.7969 H       1  ZINC001058079801    0.1000
     34 H34        -5.9356    2.5610   53.5399 H       1  ZINC001058079801    0.0800
     35 H35        -6.2175    3.8242   52.3169 H       1  ZINC001058079801    0.0800
     36 H36        -6.0977    0.8164   51.8035 H       1  ZINC001058079801    0.1000
     37 H37        -9.1253    2.7152   50.3816 H       1  ZINC001058079801    0.0600
     38 H38        -9.5952    3.0953   52.0558 H       1  ZINC001058079801    0.0800
     39 H39        -8.1490    3.8504   51.3440 H       1  ZINC001058079801    0.0800
     40 H40       -10.1791    1.4067   53.7396 H       1  ZINC001058079801    0.1100
     41 H41       -10.5048    1.3140   51.9922 H       1  ZINC001058079801    0.1100
     42 H42       -12.1710   -0.3983   54.3674 H       1  ZINC001058079801    0.2200
     43 H43        -9.1486   -1.8217   51.7148 H       1  ZINC001058079801    0.1900
     44 H44        -6.6984    1.4203   49.4872 H       1  ZINC001058079801    0.0900
     45 H45        -6.6693    3.1484   49.9159 H       1  ZINC001058079801    0.0800
     46 H46        -4.5456    2.4783   48.8345 H       1  ZINC001058079801    0.1000
     47 H47        -4.3028    1.2266   50.0763 H       1  ZINC001058079801    0.0700
@<TRIPOS>BOND
     1     1     2    1
     2     1    25    1
     3     1    26    1
     4     1    27    1
     5     2     3    1
     6     2    28    1
     7     2    29    1
     8     3     4    1
     9     3    30    1
    10     3    31    1
    11     4    24    1
    12     4     5    2
    13     5     6    1
    14     6     7    1
    15     7     8    1
    16     7    24    2
    17     8    23    1
    18     8     9    1
    19     9    10    1
    20     9    32    1
    21     9    33    1
    22    10    11    1
    23    10    34    1
    24    10    35    1
    25    11    12    1
    26    11    22    1
    27    11    36    1
    28    12    13    1
    29    12    14   am
    30    13    37    1
    31    13    38    1
    32    13    39    1
    33    14    15    2
    34    14    16    1
    35    16    17    1
    36    16    40    1
    37    16    41    1
    38    17    21    1
    39    17    18    2
    40    18    19    1
    41    18    42    1
    42    19    20    1
    43    20    21    2
    44    21    43    1
    45    22    23    1
    46    22    44    1
    47    22    45    1
    48    23    46    1
    49    23    47    1
@<TRIPOS>SUBSTRUCTURE
     1 ZINC001058079801        1 TEMP              0 ****  ****    0 ROOT


##########                                Name:    ZINC000880838037
##########                DOCK_Rotatable_Bonds:                   9
##########                         Heavy_Atoms:                  24
##########                    Molecular_Weight:             365.477
##########                DOCK_Rotatable_Bonds:                   9
##########                       Formal_Charge:           0.0200001
##########                     HBond_Acceptors:                   8
##########                        HBond_Donors:                   3
##########                         Heavy_Atoms:                  24
##########                          Grid_Score:          -34.129452
##########                     Grid_vdw_energy:          -34.949207
##########                      Grid_es_energy:            0.819757
##########           Internal_energy_repulsive:           10.554283

@<TRIPOS>MOLECULE
ZINC000880838037
 43 44 1 0 0
SMALL
USER_CHARGES


@<TRIPOS>ATOM
      1 C1         -2.5856    3.1031   52.1402 C.3     1  ZINC000880838037    0.0300
      2 O2         -3.6274    3.3372   51.1905 O.3     1  ZINC000880838037   -0.3100
      3 C3         -4.4864    2.3115   50.9516 C.ar    1  ZINC000880838037    0.1400
      4 C4         -4.0360    1.1621   50.3177 C.ar    1  ZINC000880838037   -0.2200
      5 C5         -4.9084    0.1182   50.0741 C.ar    1  ZINC000880838037   -0.0700
      6 C6         -6.2311    0.2157   50.4599 C.ar    1  ZINC000880838037   -0.1500
      7 C7         -6.6876    1.3642   51.0945 C.ar    1  ZINC000880838037    0.1800
      8 N8         -8.0275    1.4630   51.4855 N.am    1  ZINC000880838037   -0.6700
      9 C9         -8.4590    0.8109   52.5832 C.2     1  ZINC000880838037    0.5200
     10 O10        -7.6859    0.1386   53.2322 O.2     1  ZINC000880838037   -0.4900
     11 C11        -9.9020    0.9173   53.0042 C.3     1  ZINC000880838037   -0.0600
     12 C12       -10.4093   -0.4433   53.4073 C.2     1  ZINC000880838037    0.1000
     13 C13       -10.2860   -1.5181   52.6279 C.2     1  ZINC000880838037   -0.2600
     14 S14       -11.0048   -2.8892   53.4686 S.3     1  ZINC000880838037    0.1300
     15 C15       -11.4036   -1.8826   54.7917 C.2     1  ZINC000880838037    0.0100
     16 S16       -12.2257   -2.4178   56.2554 S.3     1  ZINC000880838037    0.1000
     17 C17       -13.0460   -3.9048   55.6294 C.3     1  ZINC000880838037   -0.1500
     18 H18       -12.4204   -4.3719   54.8688 H       1  ZINC000880838037    0.1200
     19 C19       -14.3950   -3.5234   55.0164 C.3     1  ZINC000880838037   -0.1500
     20 C20       -13.2653   -4.8728   56.7634 C.2     1  ZINC000880838037    0.5400
     21 N21       -14.4093   -4.8293   57.4748 N.am    1  ZINC000880838037   -0.8400
     22 O22       -12.4125   -5.6908   57.0359 O.2     1  ZINC000880838037   -0.5200
     23 N23       -11.0072   -0.6683   54.5635 N.2     1  ZINC000880838037   -0.4200
     24 C24        -5.8116    2.4105   51.3459 C.ar    1  ZINC000880838037   -0.1500
     25 C25        -6.3033    3.6580   52.0340 C.3     1  ZINC000880838037   -0.1000
     26 H26        -1.9646    2.2739   51.8013 H       1  ZINC000880838037    0.0600
     27 H27        -1.9735    3.9999   52.2365 H       1  ZINC000880838037    0.1000
     28 H28        -3.0241    2.8570   53.1073 H       1  ZINC000880838037    0.0600
     29 H29        -3.0026    1.0834   50.0142 H       1  ZINC000880838037    0.1300
     30 H30        -4.5554   -0.7752   49.5805 H       1  ZINC000880838037    0.1300
     31 H31        -6.9109   -0.6013   50.2680 H       1  ZINC000880838037    0.1400
     32 H32        -8.6457    2.0008   50.9664 H       1  ZINC000880838037    0.4100
     33 H33        -9.9845    1.6009   53.8492 H       1  ZINC000880838037    0.1200
     34 H34       -10.4964    1.2948   52.1722 H       1  ZINC000880838037    0.1200
     35 H35        -9.8261   -1.5436   51.6511 H       1  ZINC000880838037    0.1800
     36 H36       -15.0206   -3.0562   55.7770 H       1  ZINC000880838037    0.0900
     37 H37       -14.2364   -2.8233   54.1962 H       1  ZINC000880838037    0.0800
     38 H38       -14.8890   -4.4188   54.6394 H       1  ZINC000880838037    0.0800
     39 H39       -14.5510   -5.4531   58.2040 H       1  ZINC000880838037    0.4000
     40 H40       -15.0908   -4.1741   57.2575 H       1  ZINC000880838037    0.4100
     41 H41        -6.1911    3.5462   53.1124 H       1  ZINC000880838037    0.0700
     42 H42        -5.7200    4.5140   51.6948 H       1  ZINC000880838037    0.0700
     43 H43        -7.3544    3.8158   51.7925 H       1  ZINC000880838037    0.0600
@<TRIPOS>BOND
     1     1     2    1
     2     1    26    1
     3     1    27    1
     4     1    28    1
     5     2     3    1
     6     3    24   ar
     7     3     4   ar
     8     4     5   ar
     9     4    29    1
    10     5     6   ar
    11     5    30    1
    12     6     7   ar
    13     6    31    1
    14     7     8    1
    15     7    24   ar
    16     8     9   am
    17     8    32    1
    18     9    10    2
    19     9    11    1
    20    11    12    1
    21    11    33    1
    22    11    34    1
    23    12    23    1
    24    12    13    2
    25    13    14    1
    26    13    35    1
    27    14    15    1
    28    15    16    1
    29    15    23    2
    30    16    17    1
    31    17    18    1
    32    17    19    1
    33    17    20    1
    34    19    36    1
    35    19    37    1
    36    19    38    1
    37    20    21   am
    38    20    22    2
    39    21    39    1
    40    21    40    1
    41    24    25    1
    42    25    41    1
    43    25    42    1
    44    25    43    1
@<TRIPOS>SUBSTRUCTURE
     1 ZINC000880838037        1 TEMP              0 ****  ****    0 ROOT


##########                                Name:    ZINC000951315041
##########                DOCK_Rotatable_Bonds:                   5
##########                         Heavy_Atoms:                  25
##########                    Molecular_Weight:             340.382
##########                DOCK_Rotatable_Bonds:                   5
##########                       Formal_Charge:          0.00999974
##########                     HBond_Acceptors:                   7
##########                        HBond_Donors:                   1
##########                         Heavy_Atoms:                  25
##########                          Grid_Score:          -34.121094
##########                     Grid_vdw_energy:          -33.140285
##########                      Grid_es_energy:           -0.980807
##########           Internal_energy_repulsive:            9.943233

@<TRIPOS>MOLECULE
ZINC000951315041
 45 47 1 0 0
SMALL
USER_CHARGES


@<TRIPOS>ATOM
      1 C1         -9.8325   -1.6088   60.4749 C.3     1  ZINC000951315041    0.0500
      2 N2        -10.3159   -2.5207   59.4353 N.am    1  ZINC000951315041   -0.4900
      3 C3        -11.4131   -2.1951   58.7266 C.2     1  ZINC000951315041    0.1700
      4 C4        -11.8864   -3.0392   57.7429 C.2     1  ZINC000951315041   -0.2400
      5 C5        -13.0887   -2.6782   56.9693 C.2     1  ZINC000951315041    0.5800
      6 O6        -14.1597   -3.1883   57.2368 O.2     1  ZINC000951315041   -0.5200
      7 N7        -13.0007   -1.7829   55.9658 N.am    1  ZINC000951315041   -0.6000
      8 C8        -14.1898   -1.4131   55.1861 C.3     1  ZINC000951315041    0.1100
      9 C9        -13.8868   -1.6170   53.6983 C.3     1  ZINC000951315041   -0.1300
     10 C10       -12.6240   -0.8360   53.3273 C.3     1  ZINC000951315041   -0.1300
     11 C11       -11.4386   -1.3645   54.1385 C.3     1  ZINC000951315041    0.1300
     12 H12       -11.3048   -2.4272   53.9369 H       1  ZINC000951315041    0.1000
     13 N13       -10.2242   -0.6382   53.7593 N.am    1  ZINC000951315041   -0.7200
     14 C14        -9.5121   -1.0308   52.6844 C.2     1  ZINC000951315041    0.5700
     15 O15        -9.8768   -1.9883   52.0305 O.2     1  ZINC000951315041   -0.5200
     16 C16        -8.2875   -0.2968   52.3007 C.ar    1  ZINC000951315041   -0.1900
     17 C17        -7.9963    0.9485   52.8698 C.ar    1  ZINC000951315041   -0.0100
     18 C18        -6.8370    1.5943   52.4769 C.ar    1  ZINC000951315041   -0.1800
     19 C19        -6.0111    0.9946   51.5437 C.ar    1  ZINC000951315041    0.1300
     20 N20        -6.3113   -0.1804   51.0235 N.ar    1  ZINC000951315041   -0.4900
     21 C21        -7.3993   -0.8364   51.3693 C.ar    1  ZINC000951315041    0.1400
     22 C22       -11.7150   -1.1535   55.6349 C.3     1  ZINC000951315041    0.1000
     23 C23       -11.2083   -4.2546   57.4818 C.2     1  ZINC000951315041    0.0100
     24 C24       -10.1020   -4.5620   58.2101 C.2     1  ZINC000951315041   -0.2300
     25 C25        -9.6533   -3.6676   59.2001 C.2     1  ZINC000951315041    0.5100
     26 O26        -8.6612   -3.9387   59.8557 O.2     1  ZINC000951315041   -0.5400
     27 H27        -8.9393   -2.0275   60.9386 H       1  ZINC000951315041    0.1100
     28 H28        -9.5918   -0.6439   60.0286 H       1  ZINC000951315041    0.0800
     29 H29       -10.6064   -1.4766   61.2309 H       1  ZINC000951315041    0.0800
     30 H30       -11.9266   -1.2670   58.9296 H       1  ZINC000951315041    0.1700
     31 H31       -15.0290   -2.0444   55.4779 H       1  ZINC000951315041    0.1000
     32 H32       -14.4359   -0.3671   55.3689 H       1  ZINC000951315041    0.0700
     33 H33       -13.7299   -2.6774   53.5010 H       1  ZINC000951315041    0.0700
     34 H34       -14.7257   -1.2560   53.1034 H       1  ZINC000951315041    0.0900
     35 H35       -12.4201   -0.9596   52.2637 H       1  ZINC000951315041    0.0800
     36 H36       -12.7727    0.2210   53.5480 H       1  ZINC000951315041    0.0700
     37 H37        -9.9325    0.1252   54.2818 H       1  ZINC000951315041    0.4000
     38 H38        -8.6595    1.3941   53.5966 H       1  ZINC000951315041    0.1500
     39 H39        -6.5802    2.5567   52.8945 H       1  ZINC000951315041    0.1500
     40 H40        -5.1058    1.4964   51.2352 H       1  ZINC000951315041    0.1600
     41 H41        -7.6107   -1.7963   50.9215 H       1  ZINC000951315041    0.1600
     42 H42       -11.7580   -0.0861   55.8516 H       1  ZINC000951315041    0.0700
     43 H43       -10.9214   -1.6159   56.2218 H       1  ZINC000951315041    0.0900
     44 H44       -11.5648   -4.9275   56.7160 H       1  ZINC000951315041    0.1400
     45 H45        -9.5696   -5.4840   58.0280 H       1  ZINC000951315041    0.1600
@<TRIPOS>BOND
     1     1     2    1
     2     1    27    1
     3     1    28    1
     4     1    29    1
     5     2    25   am
     6     2     3    1
     7     3     4    2
     8     3    30    1
     9     4     5    1
    10     4    23    1
    11     5     6    2
    12     5     7   am
    13     7    22    1
    14     7     8    1
    15     8     9    1
    16     8    31    1
    17     8    32    1
    18     9    10    1
    19     9    33    1
    20     9    34    1
    21    10    11    1
    22    10    35    1
    23    10    36    1
    24    11    12    1
    25    11    13    1
    26    11    22    1
    27    13    14   am
    28    13    37    1
    29    14    15    2
    30    14    16    1
    31    16    21   ar
    32    16    17   ar
    33    17    18   ar
    34    17    38    1
    35    18    19   ar
    36    18    39    1
    37    19    20   ar
    38    19    40    1
    39    20    21   ar
    40    21    41    1
    41    22    42    1
    42    22    43    1
    43    23    24    2
    44    23    44    1
    45    24    25    1
    46    24    45    1
    47    25    26    2
@<TRIPOS>SUBSTRUCTURE
     1 ZINC000951315041        1 TEMP              0 ****  ****    0 ROOT


##########                                Name:    ZINC000548281822
##########                DOCK_Rotatable_Bonds:                   6
##########                         Heavy_Atoms:                  24
##########                    Molecular_Weight:             332.406
##########                DOCK_Rotatable_Bonds:                   6
##########                       Formal_Charge:        -5.58794e-08
##########                     HBond_Acceptors:                   8
##########                        HBond_Donors:                   2
##########                         Heavy_Atoms:                  24
##########                          Grid_Score:          -34.119602
##########                     Grid_vdw_energy:          -32.533295
##########                      Grid_es_energy:           -1.586308
##########           Internal_energy_repulsive:            6.128296

@<TRIPOS>MOLECULE
ZINC000548281822
 48 50 1 0 0
SMALL
USER_CHARGES


@<TRIPOS>ATOM
      1 C1          2.0973    2.5477   49.9340 C.3     1  ZINC000548281822   -0.1700
      2 C2          1.2581    2.0338   48.7623 C.3     1  ZINC000548281822    0.2600
      3 H3          1.1705    0.9492   48.8263 H       1  ZINC000548281822    0.1400
      4 N4         -0.0764    2.6357   48.8164 N.am    1  ZINC000548281822   -0.7400
      5 C5         -1.0299    2.0913   49.5981 C.2     1  ZINC000548281822    0.7100
      6 O6         -0.7830    1.0999   50.2571 O.2     1  ZINC000548281822   -0.5700
      7 N7         -2.2572    2.6459   49.6491 N.am    1  ZINC000548281822   -0.7400
      8 C8         -3.2931    2.0553   50.5001 C.3     1  ZINC000548281822    0.1600
      9 H9         -2.8254    1.5471   51.3434 H       1  ZINC000548281822    0.1000
     10 C10        -4.2200    3.1589   51.0182 C.3     1  ZINC000548281822   -0.1400
     11 C11        -5.1542    2.5822   52.0876 C.3     1  ZINC000548281822    0.1100
     12 N12        -5.7789    1.3659   51.5623 N.pl3   1  ZINC000548281822   -0.4600
     13 C13        -6.8881    0.7275   52.0314 C.2     1  ZINC000548281822   -0.0500
     14 C14        -7.0861   -0.3416   51.2335 C.2     1  ZINC000548281822   -0.0300
     15 N15        -6.1187   -0.3511   50.3021 N.2     1  ZINC000548281822   -0.4900
     16 C16        -5.3317    0.6672   50.4920 C.2     1  ZINC000548281822    0.2100
     17 C17        -4.1125    1.0470   49.6848 C.3     1  ZINC000548281822   -0.0500
     18 C18         1.9257    2.4080   47.4641 C.2     1  ZINC000548281822    0.1700
     19 N19         2.8314    1.7101   46.8220 N.2     1  ZINC000548281822   -0.4600
     20 C20         3.1324    2.4288   45.7259 C.2     1  ZINC000548281822    0.1900
     21 C21         4.1268    2.0526   44.6579 C.3     1  ZINC000548281822    0.0200
     22 C22         4.7256    3.3219   44.0486 C.3     1  ZINC000548281822   -0.1400
     23 C23         5.2431    1.2077   45.2754 C.3     1  ZINC000548281822   -0.1400
     24 C24         3.4216    1.2461   43.5656 C.3     1  ZINC000548281822   -0.1400
     25 N25         2.4079    3.5072   45.7566 N.2     1  ZINC000548281822   -0.3700
     26 O26         1.7035    3.5118   46.7442 O.3     1  ZINC000548281822    0.0800
     27 H27         2.1850    3.6323   49.8699 H       1  ZINC000548281822    0.0700
     28 H28         1.6145    2.2770   50.8729 H       1  ZINC000548281822    0.0900
     29 H29         3.0902    2.0999   49.8937 H       1  ZINC000548281822    0.0800
     30 H30        -0.2738    3.4259   48.2897 H       1  ZINC000548281822    0.4000
     31 H31        -2.4546    3.4362   49.1224 H       1  ZINC000548281822    0.4000
     32 H32        -3.6228    3.9609   51.4520 H       1  ZINC000548281822    0.1000
     33 H33        -4.8125    3.5530   50.1926 H       1  ZINC000548281822    0.0800
     34 H34        -4.5805    2.3412   52.9824 H       1  ZINC000548281822    0.0900
     35 H35        -5.9255    3.3129   52.3314 H       1  ZINC000548281822    0.1000
     36 H36        -7.4911    1.0205   52.8781 H       1  ZINC000548281822    0.1800
     37 H37        -7.8831   -1.0643   51.3276 H       1  ZINC000548281822    0.1700
     38 H38        -4.4218    1.5008   48.7431 H       1  ZINC000548281822    0.0900
     39 H39        -3.5120    0.1593   49.4861 H       1  ZINC000548281822    0.1000
     40 H40         5.2280    3.8965   44.8268 H       1  ZINC000548281822    0.0600
     41 H41         5.4449    3.0498   43.2762 H       1  ZINC000548281822    0.0700
     42 H42         3.9303    3.9238   43.6087 H       1  ZINC000548281822    0.0700
     43 H43         4.8165    0.3035   45.7094 H       1  ZINC000548281822    0.0600
     44 H44         5.9623    0.9357   44.5029 H       1  ZINC000548281822    0.0700
     45 H45         5.7455    1.7822   46.0535 H       1  ZINC000548281822    0.0600
     46 H46         2.6263    1.8480   43.1257 H       1  ZINC000548281822    0.0700
     47 H47         4.1409    0.9741   42.7932 H       1  ZINC000548281822    0.0700
     48 H48         2.9951    0.3419   43.9996 H       1  ZINC000548281822    0.0600
@<TRIPOS>BOND
     1     1     2    1
     2     1    27    1
     3     1    28    1
     4     1    29    1
     5     2     3    1
     6     2     4    1
     7     2    18    1
     8     4     5   am
     9     4    30    1
    10     5     6    2
    11     5     7   am
    12     7     8    1
    13     7    31    1
    14     8     9    1
    15     8    17    1
    16     8    10    1
    17    10    11    1
    18    10    32    1
    19    10    33    1
    20    11    12    1
    21    11    34    1
    22    11    35    1
    23    12    16    1
    24    12    13    1
    25    13    14    2
    26    13    36    1
    27    14    15    1
    28    14    37    1
    29    15    16    2
    30    16    17    1
    31    17    38    1
    32    17    39    1
    33    18    26    1
    34    18    19    2
    35    19    20    1
    36    20    21    1
    37    20    25    2
    38    21    22    1
    39    21    23    1
    40    21    24    1
    41    22    40    1
    42    22    41    1
    43    22    42    1
    44    23    43    1
    45    23    44    1
    46    23    45    1
    47    24    46    1
    48    24    47    1
    49    24    48    1
    50    25    26    1
@<TRIPOS>SUBSTRUCTURE
     1 ZINC000548281822        1 TEMP              0 ****  ****    0 ROOT


##########                                Name:    ZINC001162683355
##########                DOCK_Rotatable_Bonds:                   5
##########                         Heavy_Atoms:                  25
##########                    Molecular_Weight:             336.437
##########                DOCK_Rotatable_Bonds:                   5
##########                       Formal_Charge:          -0.0100002
##########                     HBond_Acceptors:                   5
##########                        HBond_Donors:                   1
##########                         Heavy_Atoms:                  25
##########                          Grid_Score:          -34.102901
##########                     Grid_vdw_energy:          -34.100437
##########                      Grid_es_energy:           -0.002466
##########           Internal_energy_repulsive:            9.188208

@<TRIPOS>MOLECULE
ZINC001162683355
 49 52 1 0 0
SMALL
USER_CHARGES


@<TRIPOS>ATOM
      1 C1          2.1933    2.6073   47.9872 C.3     1  ZINC001162683355    0.0200
      2 N2          1.2444    2.7279   49.1021 N.3     1  ZINC001162683355   -0.5400
      3 C3          1.7263    2.0003   50.2851 C.3     1  ZINC001162683355    0.0100
      4 C4          0.7395    2.2013   51.4383 C.3     1  ZINC001162683355    0.0600
      5 O5         -0.5601    1.7677   51.0281 O.3     1  ZINC001162683355   -0.3800
      6 C6         -1.0606    2.4560   49.8787 C.3     1  ZINC001162683355    0.0800
      7 H7         -1.1500    3.5192   50.1016 H       1  ZINC001162683355    0.0700
      8 C8         -2.4341    1.8950   49.5051 C.3     1  ZINC001162683355    0.1500
      9 N9         -3.3994    2.2266   50.5560 N.pl3   1  ZINC001162683355   -0.7300
     10 C10        -4.5235    1.4301   50.7440 C.ar    1  ZINC001162683355    0.4300
     11 C11        -5.5653    1.8761   51.5607 C.ar    1  ZINC001162683355   -0.0100
     12 C12        -6.6881    1.0452   51.7290 C.ar    1  ZINC001162683355   -0.0400
     13 C13        -6.7143   -0.1921   51.0716 C.ar    1  ZINC001162683355   -0.1800
     14 C14        -5.6514   -0.5467   50.2928 C.ar    1  ZINC001162683355    0.1000
     15 N15        -4.6046    0.2515   50.1489 N.ar    1  ZINC001162683355   -0.5400
     16 C16        -7.5951    1.7639   52.6188 C.2     1  ZINC001162683355   -0.2200
     17 C17        -6.9991    2.9289   52.9293 C.2     1  ZINC001162683355    0.0800
     18 N18        -5.7890    3.0141   52.3016 N.pl3   1  ZINC001162683355   -0.4600
     19 C19        -4.8643    4.1456   52.4064 C.3     1  ZINC001162683355    0.1500
     20 C20        -3.7901    3.8248   53.4135 C.ar    1  ZINC001162683355   -0.1100
     21 C21        -4.1250    3.2291   54.6151 C.ar    1  ZINC001162683355   -0.1000
     22 C22        -3.1391    2.9309   55.5371 C.ar    1  ZINC001162683355   -0.1200
     23 C23        -1.8196    3.2368   55.2613 C.ar    1  ZINC001162683355   -0.1100
     24 C24        -1.4854    3.8373   54.0619 C.ar    1  ZINC001162683355   -0.1200
     25 C25        -2.4707    4.1314   53.1381 C.ar    1  ZINC001162683355   -0.1000
     26 C26        -0.0920    2.2575   48.7097 C.3     1  ZINC001162683355    0.0300
     27 H27         2.2614    1.5639   47.6793 H       1  ZINC001162683355    0.0300
     28 H28         1.8474    3.2117   47.1487 H       1  ZINC001162683355    0.0700
     29 H29         3.1752    2.9569   48.3063 H       1  ZINC001162683355    0.0700
     30 H30         2.7057    2.3821   50.5733 H       1  ZINC001162683355    0.0900
     31 H31         1.8030    0.9380   50.0528 H       1  ZINC001162683355    0.0500
     32 H32         0.7032    3.2573   51.7062 H       1  ZINC001162683355    0.0600
     33 H33         1.0626    1.6179   52.3005 H       1  ZINC001162683355    0.1000
     34 H34        -2.3681    0.8120   49.4010 H       1  ZINC001162683355    0.0700
     35 H35        -2.7604    2.3315   48.5611 H       1  ZINC001162683355    0.0800
     36 H36        -3.2543    3.0019   51.1206 H       1  ZINC001162683355    0.4000
     37 H37        -7.5613   -0.8535   51.1791 H       1  ZINC001162683355    0.1300
     38 H38        -5.6643   -1.4985   49.7826 H       1  ZINC001162683355    0.1500
     39 H39        -8.5593    1.4228   52.9657 H       1  ZINC001162683355    0.1500
     40 H40        -7.4164    3.6858   53.5770 H       1  ZINC001162683355    0.1700
     41 H41        -5.4104    5.0326   52.7276 H       1  ZINC001162683355    0.0900
     42 H42        -4.4073    4.3323   51.4346 H       1  ZINC001162683355    0.0900
     43 H43        -5.1564    2.9936   54.8322 H       1  ZINC001162683355    0.1200
     44 H44        -3.4002    2.4614   56.4740 H       1  ZINC001162683355    0.1300
     45 H45        -1.0497    3.0062   55.9827 H       1  ZINC001162683355    0.1300
     46 H46        -0.4544    4.0762   53.8464 H       1  ZINC001162683355    0.1300
     47 H47        -2.2096    4.6007   52.2010 H       1  ZINC001162683355    0.1200
     48 H48        -0.0444    1.1994   48.4522 H       1  ZINC001162683355    0.0500
     49 H49        -0.4400    2.8271   47.8480 H       1  ZINC001162683355    0.0900
@<TRIPOS>BOND
     1     1     2    1
     2     1    27    1
     3     1    28    1
     4     1    29    1
     5     2    26    1
     6     2     3    1
     7     3     4    1
     8     3    30    1
     9     3    31    1
    10     4     5    1
    11     4    32    1
    12     4    33    1
    13     5     6    1
    14     6     7    1
    15     6     8    1
    16     6    26    1
    17     8     9    1
    18     8    34    1
    19     8    35    1
    20     9    10    1
    21     9    36    1
    22    10    15   ar
    23    10    11   ar
    24    11    18    1
    25    11    12   ar
    26    12    13   ar
    27    12    16    1
    28    13    14   ar
    29    13    37    1
    30    14    15   ar
    31    14    38    1
    32    16    17    2
    33    16    39    1
    34    17    18    1
    35    17    40    1
    36    18    19    1
    37    19    20    1
    38    19    41    1
    39    19    42    1
    40    20    25   ar
    41    20    21   ar
    42    21    22   ar
    43    21    43    1
    44    22    23   ar
    45    22    44    1
    46    23    24   ar
    47    23    45    1
    48    24    25   ar
    49    24    46    1
    50    25    47    1
    51    26    48    1
    52    26    49    1
@<TRIPOS>SUBSTRUCTURE
     1 ZINC001162683355        1 TEMP              0 ****  ****    0 ROOT


##########                                Name:    ZINC000676204775
##########                DOCK_Rotatable_Bonds:                   4
##########                         Heavy_Atoms:                  25
##########                    Molecular_Weight:             359.452
##########                DOCK_Rotatable_Bonds:                   4
##########                       Formal_Charge:          0.00999978
##########                     HBond_Acceptors:                   8
##########                        HBond_Donors:                   2
##########                         Heavy_Atoms:                  25
##########                          Grid_Score:          -34.094482
##########                     Grid_vdw_energy:          -34.831242
##########                      Grid_es_energy:            0.736760
##########           Internal_energy_repulsive:           11.016629

@<TRIPOS>MOLECULE
ZINC000676204775
 46 49 1 0 0
SMALL
USER_CHARGES


@<TRIPOS>ATOM
      1 C1         -8.7501    2.5663   54.4969 C.3     1  ZINC000676204775   -0.1600
      2 C2         -9.4638    1.6834   53.4711 C.3     1  ZINC000676204775    0.1600
      3 C3        -10.2143    2.5667   52.4725 C.3     1  ZINC000676204775   -0.1600
      4 N4         -8.4772    0.8689   52.7575 N.pl3   1  ZINC000676204775   -0.3900
      5 N5         -8.4511   -0.5292   52.7234 N.2     1  ZINC000676204775   -0.2500
      6 C6         -7.4480   -0.9406   52.0018 C.2     1  ZINC000676204775    0.0900
      7 C7         -6.7405    0.2369   51.5093 C.ar    1  ZINC000676204775   -0.2100
      8 C8         -5.6117    0.4277   50.7051 C.ar    1  ZINC000676204775    0.0800
      9 C9         -5.1924    1.6950   50.4199 C.ar    1  ZINC000676204775   -0.7200
     10 S10        -3.7712    1.9368   49.4068 S.o2    1  ZINC000676204775    2.6900
     11 O11        -3.0334    0.7233   49.4543 O.2     1  ZINC000676204775   -0.9300
     12 O12        -4.2358    2.5171   48.1958 O.2     1  ZINC000676204775   -0.9600
     13 N13        -2.8326    3.0841   50.1451 N.am    1  ZINC000676204775   -1.1100
     14 C14        -2.3131    2.8481   51.4944 C.3     1  ZINC000676204775    0.2400
     15 H15        -2.8726    2.0414   51.9679 H       1  ZINC000676204775    0.1000
     16 C16        -2.4429    4.1278   52.3299 C.3     1  ZINC000676204775   -0.1200
     17 C17        -1.6887    3.9613   53.6509 C.3     1  ZINC000676204775   -0.1200
     18 C18        -0.1773    3.9837   53.3905 C.3     1  ZINC000676204775   -0.0400
     19 C19         0.1248    3.0021   52.2851 C.2     1  ZINC000676204775   -0.2300
     20 C20         1.3133    2.4732   51.9403 C.2     1  ZINC000676204775    0.0600
     21 N21         1.1035    1.6420   50.8950 N.pl3   1  ZINC000676204775   -0.4800
     22 N22        -0.2660    1.6658   50.5903 N.2     1  ZINC000676204775   -0.2400
     23 C23        -0.8514    2.4786   51.4199 C.2     1  ZINC000676204775    0.0500
     24 C24        -5.8758    2.7961   50.9206 C.ar    1  ZINC000676204775    0.0100
     25 C25        -6.9807    2.6354   51.7081 C.ar    1  ZINC000676204775   -0.1500
     26 C26        -7.4352    1.3546   52.0115 C.ar    1  ZINC000676204775    0.1700
     27 H27        -8.2155    1.9370   55.2085 H       1  ZINC000676204775    0.0600
     28 H28        -8.0424    3.2184   53.9852 H       1  ZINC000676204775    0.0700
     29 H29        -9.4842    3.1723   55.0279 H       1  ZINC000676204775    0.0800
     30 H30       -10.1716    1.0313   53.9829 H       1  ZINC000676204775    0.1000
     31 H31        -9.5065    3.2189   51.9607 H       1  ZINC000676204775    0.0700
     32 H32       -10.7227    1.9378   51.7417 H       1  ZINC000676204775    0.0600
     33 H33       -10.9483    3.1728   53.0035 H       1  ZINC000676204775    0.0800
     34 H34        -7.1863   -1.9695   51.8035 H       1  ZINC000676204775    0.2000
     35 H35        -5.0748   -0.4231   50.3124 H       1  ZINC000676204775    0.1500
     36 H36        -2.6267    3.9124   49.6840 H       1  ZINC000676204775    0.4200
     37 H37        -2.0224    4.9667   51.7756 H       1  ZINC000676204775    0.0800
     38 H38        -3.4957    4.3213   52.5354 H       1  ZINC000676204775    0.0800
     39 H39        -1.9526    4.7767   54.3243 H       1  ZINC000676204775    0.0700
     40 H40        -1.9637    3.0108   54.1083 H       1  ZINC000676204775    0.0700
     41 H41         0.1289    4.9848   53.0871 H       1  ZINC000676204775    0.0700
     42 H42         0.3562    3.6937   54.2956 H       1  ZINC000676204775    0.0700
     43 H43         2.2628    2.6761   52.4132 H       1  ZINC000676204775    0.1800
     44 H44         1.7807    1.1207   50.4361 H       1  ZINC000676204775    0.4400
     45 H45        -5.5291    3.7914   50.6848 H       1  ZINC000676204775    0.1500
     46 H46        -7.5028    3.4998   52.0909 H       1  ZINC000676204775    0.1300
@<TRIPOS>BOND
     1     1     2    1
     2     1    27    1
     3     1    28    1
     4     1    29    1
     5     2     3    1
     6     2     4    1
     7     2    30    1
     8     3    31    1
     9     3    32    1
    10     3    33    1
    11     4    26    1
    12     4     5    1
    13     5     6    2
    14     6     7    1
    15     6    34    1
    16     7    26   ar
    17     7     8   ar
    18     8     9   ar
    19     8    35    1
    20     9    10    1
    21     9    24   ar
    22    10    11    2
    23    10    12    2
    24    10    13   am
    25    13    14    1
    26    13    36    1
    27    14    15    1
    28    14    23    1
    29    14    16    1
    30    16    17    1
    31    16    37    1
    32    16    38    1
    33    17    18    1
    34    17    39    1
    35    17    40    1
    36    18    19    1
    37    18    41    1
    38    18    42    1
    39    19    23    1
    40    19    20    2
    41    20    21    1
    42    20    43    1
    43    21    22    1
    44    21    44    1
    45    22    23    2
    46    24    25   ar
    47    24    45    1
    48    25    26   ar
    49    25    46    1
@<TRIPOS>SUBSTRUCTURE
     1 ZINC000676204775        1 TEMP              0 ****  ****    0 ROOT


##########                                Name:    ZINC000536173632
##########                DOCK_Rotatable_Bonds:                   7
##########                         Heavy_Atoms:                  29
##########                    Molecular_Weight:             407.389
##########                DOCK_Rotatable_Bonds:                   7
##########                       Formal_Charge:        -2.98023e-07
##########                     HBond_Acceptors:                   8
##########                        HBond_Donors:                   0
##########                         Heavy_Atoms:                  29
##########                          Grid_Score:          -34.091900
##########                     Grid_vdw_energy:          -33.526760
##########                      Grid_es_energy:           -0.565140
##########           Internal_energy_repulsive:           13.890985

@<TRIPOS>MOLECULE
ZINC000536173632
 49 51 1 0 0
SMALL
USER_CHARGES


@<TRIPOS>ATOM
      1 C1        -10.4389   -2.6432   58.9010 C.3     1  ZINC000536173632    0.0400
      2 O2        -10.6119   -2.1224   57.5566 O.3     1  ZINC000536173632   -0.3500
      3 C3        -11.3087   -2.8836   56.6908 C.2     1  ZINC000536173632    0.5100
      4 O4        -11.7537   -3.9563   57.0471 O.2     1  ZINC000536173632   -0.5000
      5 C5        -11.5316   -2.4139   55.3081 C.ar    1  ZINC000536173632   -0.1300
      6 C6        -12.2648   -3.1941   54.4122 C.ar    1  ZINC000536173632   -0.0600
      7 C7        -12.4692   -2.7495   53.1222 C.ar    1  ZINC000536173632   -0.1300
      8 C8        -11.9490   -1.5337   52.7157 C.ar    1  ZINC000536173632   -0.0700
      9 C9        -11.2213   -0.7553   53.5986 C.ar    1  ZINC000536173632   -0.0800
     10 C10       -10.6586    0.5677   53.1467 C.3     1  ZINC000536173632   -0.1000
     11 C11        -9.1996    0.4033   52.8070 C.2     1  ZINC000536173632    0.5200
     12 O12        -8.7142   -0.7060   52.7383 O.2     1  ZINC000536173632   -0.5200
     13 N13        -8.4342    1.4891   52.5795 N.am    1  ZINC000536173632   -0.6200
     14 C14        -9.0007    2.8450   52.6571 C.3     1  ZINC000536173632    0.0700
     15 C15        -8.6196    3.6021   51.3797 C.3     1  ZINC000536173632    0.0500
     16 O16        -7.2060    3.5148   51.1850 O.3     1  ZINC000536173632   -0.3700
     17 C17        -6.7232    2.1835   50.9893 C.3     1  ZINC000536173632    0.1200
     18 H18        -7.2295    1.7345   50.1348 H       1  ZINC000536173632    0.0800
     19 C19        -5.2385    2.2190   50.7332 C.ar    1  ZINC000536173632   -0.0900
     20 C20        -4.6309    1.1854   50.0459 C.ar    1  ZINC000536173632   -0.0600
     21 C21        -3.2688    1.2179   49.8110 C.ar    1  ZINC000536173632   -0.1200
     22 C22        -2.5149    2.2845   50.2631 C.ar    1  ZINC000536173632   -0.0700
     23 C23        -3.1229    3.3190   50.9498 C.ar    1  ZINC000536173632   -0.1800
     24 C24        -2.3009    4.4817   51.4432 C.3     1  ZINC000536173632    0.5100
     25 F25        -3.1141    5.6147   51.5523 F       1  ZINC000536173632   -0.1800
     26 F26        -1.7610    4.1727   52.6963 F       1  ZINC000536173632   -0.1800
     27 F27        -1.2643    4.7370   50.5390 F       1  ZINC000536173632   -0.1800
     28 C28        -4.4852    3.2885   51.1809 C.ar    1  ZINC000536173632   -0.0500
     29 C29        -7.0060    1.3540   52.2522 C.3     1  ZINC000536173632    0.0900
     30 C30       -11.0147   -1.1849   54.8929 C.ar    1  ZINC000536173632   -0.0400
     31 H31       -11.4156   -2.7914   59.3617 H       1  ZINC000536173632    0.0600
     32 H32        -9.9099   -3.5953   58.8566 H       1  ZINC000536173632    0.0600
     33 H33        -9.8614   -1.9340   59.4939 H       1  ZINC000536173632    0.1000
     34 H34       -12.6708   -4.1438   54.7281 H       1  ZINC000536173632    0.1400
     35 H35       -13.0363   -3.3521   52.4281 H       1  ZINC000536173632    0.1400
     36 H36       -12.1115   -1.1907   51.7046 H       1  ZINC000536173632    0.1300
     37 H37       -11.2004    0.9110   52.2654 H       1  ZINC000536173632    0.1100
     38 H38       -10.7650    1.3001   53.9469 H       1  ZINC000536173632    0.1100
     39 H39       -10.0861    2.7853   52.7384 H       1  ZINC000536173632    0.1000
     40 H40        -8.5949    3.3632   53.5259 H       1  ZINC000536173632    0.0800
     41 H41        -9.1328    3.1583   50.5267 H       1  ZINC000536173632    0.0600
     42 H42        -8.9099    4.6482   51.4763 H       1  ZINC000536173632    0.1100
     43 H43        -5.2200    0.3520   49.6926 H       1  ZINC000536173632    0.1400
     44 H44        -2.7939    0.4098   49.2745 H       1  ZINC000536173632    0.1400
     45 H45        -1.4508    2.3096   50.0802 H       1  ZINC000536173632    0.1400
     46 H46        -4.9603    4.0966   51.7173 H       1  ZINC000536173632    0.1400
     47 H47        -6.3980    1.7236   53.0779 H       1  ZINC000536173632    0.0800
     48 H48        -6.7716    0.3063   52.0634 H       1  ZINC000536173632    0.1100
     49 H49       -10.4469   -0.5762   55.5810 H       1  ZINC000536173632    0.1400
@<TRIPOS>BOND
     1     1     2    1
     2     1    31    1
     3     1    32    1
     4     1    33    1
     5     2     3    1
     6     3     4    2
     7     3     5    1
     8     5    30   ar
     9     5     6   ar
    10     6     7   ar
    11     6    34    1
    12     7     8   ar
    13     7    35    1
    14     8     9   ar
    15     8    36    1
    16     9    10    1
    17     9    30   ar
    18    10    11    1
    19    10    37    1
    20    10    38    1
    21    11    12    2
    22    11    13   am
    23    13    29    1
    24    13    14    1
    25    14    15    1
    26    14    39    1
    27    14    40    1
    28    15    16    1
    29    15    41    1
    30    15    42    1
    31    16    17    1
    32    17    18    1
    33    17    19    1
    34    17    29    1
    35    19    28   ar
    36    19    20   ar
    37    20    21   ar
    38    20    43    1
    39    21    22   ar
    40    21    44    1
    41    22    23   ar
    42    22    45    1
    43    23    24    1
    44    23    28   ar
    45    24    25    1
    46    24    26    1
    47    24    27    1
    48    28    46    1
    49    29    47    1
    50    29    48    1
    51    30    49    1
@<TRIPOS>SUBSTRUCTURE
     1 ZINC000536173632        1 TEMP              0 ****  ****    0 ROOT


##########                                Name:    ZINC000426037318
##########                DOCK_Rotatable_Bonds:                   7
##########                         Heavy_Atoms:                  28
##########                    Molecular_Weight:             421.904
##########                DOCK_Rotatable_Bonds:                   7
##########                       Formal_Charge:         -0.00999981
##########                     HBond_Acceptors:                   9
##########                        HBond_Donors:                   1
##########                         Heavy_Atoms:                  28
##########                          Grid_Score:          -34.078247
##########                     Grid_vdw_energy:          -33.550022
##########                      Grid_es_energy:           -0.528224
##########           Internal_energy_repulsive:           19.381287

@<TRIPOS>MOLECULE
ZINC000426037318
 48 50 1 0 0
SMALL
USER_CHARGES


@<TRIPOS>ATOM
      1 C1        -11.5466   -0.2736   53.3289 C.3     1  ZINC000426037318    0.0300
      2 O2        -10.8477   -0.6610   52.1442 O.3     1  ZINC000426037318   -0.3800
      3 C3         -9.5864   -1.2855   52.3915 C.3     1  ZINC000426037318    0.1300
      4 C4         -8.4766   -0.3080   52.1024 C.ar    1  ZINC000426037318    0.3900
      5 N5         -8.5239    0.8927   52.6510 N.ar    1  ZINC000426037318   -0.5700
      6 C6         -7.5757    1.7875   52.4303 C.ar    1  ZINC000426037318    0.4400
      7 O7         -7.6408    3.0127   53.0015 O.3     1  ZINC000426037318   -0.2800
      8 C8         -8.7673    3.2788   53.8395 C.3     1  ZINC000426037318    0.0300
      9 C9         -6.4870    1.4428   51.5846 C.ar    1  ZINC000426037318   -0.2000
     10 C10        -5.3739    2.1982   51.1982 C.2     1  ZINC000426037318    0.0500
     11 C11        -5.1585    3.6127   51.6714 C.3     1  ZINC000426037318   -0.1200
     12 C12        -4.5133    1.5797   50.3803 C.2     1  ZINC000426037318   -0.2700
     13 C13        -3.2826    2.1822   49.8531 C.2     1  ZINC000426037318    0.6000
     14 O14        -3.2013    2.4655   48.6725 O.2     1  ZINC000426037318   -0.5000
     15 N15        -2.2430    2.4214   50.6767 N.am    1  ZINC000426037318   -0.6600
     16 C16        -1.0687    2.9961   50.1737 C.ar    1  ZINC000426037318    0.1200
     17 C17        -0.2791    2.2903   49.2765 C.ar    1  ZINC000426037318   -0.0700
     18 C18         0.8785    2.8579   48.7805 C.ar    1  ZINC000426037318   -0.0900
     19 C19         1.7353    2.0915   47.8061 C.3     1  ZINC000426037318   -0.1100
     20 C20         1.2524    4.1328   49.1785 C.ar    1  ZINC000426037318    0.1300
     21 O21         2.3919    4.6905   48.6892 O.3     1  ZINC000426037318   -0.3100
     22 C22         2.7157    6.0070   49.1409 C.3     1  ZINC000426037318    0.0200
     23 C23         0.4643    4.8398   50.0752 C.ar    1  ZINC000426037318   -0.1800
     24 C24        -0.6965    4.2759   50.5683 C.ar    1  ZINC000426037318   -0.0300
     25 Cl25       -1.6833    5.1603   51.6899 Cl      1  ZINC000426037318   -0.0600
     26 S26        -5.0582   -0.0507   50.0253 S.3     1  ZINC000426037318    0.2200
     27 C27        -6.4874    0.1551   51.0289 C.ar    1  ZINC000426037318    0.1300
     28 N28        -7.4914   -0.6798   51.3176 N.ar    1  ZINC000426037318   -0.5000
     29 H29       -12.4935    0.1924   53.0560 H       1  ZINC000426037318    0.0900
     30 H30       -11.7384   -1.1542   53.9420 H       1  ZINC000426037318    0.0500
     31 H31       -10.9411    0.4364   53.8923 H       1  ZINC000426037318    0.0500
     32 H32        -9.5335   -1.5972   53.4346 H       1  ZINC000426037318    0.0900
     33 H33        -9.4799   -2.1573   51.7459 H       1  ZINC000426037318    0.0800
     34 H34        -8.7805    2.5691   54.6666 H       1  ZINC000426037318    0.0700
     35 H35        -8.6964    4.2931   54.2323 H       1  ZINC000426037318    0.1100
     36 H36        -9.6842    3.1772   53.2589 H       1  ZINC000426037318    0.0700
     37 H37        -4.5857    3.6023   52.5988 H       1  ZINC000426037318    0.0900
     38 H38        -4.6104    4.1704   50.9121 H       1  ZINC000426037318    0.1000
     39 H39        -6.1235    4.0885   51.8458 H       1  ZINC000426037318    0.0800
     40 H40        -2.3079    2.1956   51.6179 H       1  ZINC000426037318    0.4100
     41 H41        -0.5695    1.2974   48.9666 H       1  ZINC000426037318    0.1600
     42 H42         1.4101    2.3074   46.7884 H       1  ZINC000426037318    0.0700
     43 H43         2.7769    2.3896   47.9257 H       1  ZINC000426037318    0.0700
     44 H44         1.6387    1.0232   47.9995 H       1  ZINC000426037318    0.0700
     45 H45         1.9135    6.6925   48.8676 H       1  ZINC000426037318    0.0600
     46 H46         2.8348    6.0004   50.2243 H       1  ZINC000426037318    0.0600
     47 H47         3.6460    6.3323   48.6752 H       1  ZINC000426037318    0.1000
     48 H48         0.7562    5.8325   50.3846 H       1  ZINC000426037318    0.1500
@<TRIPOS>BOND
     1     1     2    1
     2     1    29    1
     3     1    30    1
     4     1    31    1
     5     2     3    1
     6     3     4    1
     7     3    32    1
     8     3    33    1
     9     4    28   ar
    10     4     5   ar
    11     5     6   ar
    12     6     7    1
    13     6     9   ar
    14     7     8    1
    15     8    34    1
    16     8    35    1
    17     8    36    1
    18     9    27   ar
    19     9    10    1
    20    10    11    1
    21    10    12    2
    22    11    37    1
    23    11    38    1
    24    11    39    1
    25    12    13    1
    26    12    26    1
    27    13    14    2
    28    13    15   am
    29    15    16    1
    30    15    40    1
    31    16    24   ar
    32    16    17   ar
    33    17    18   ar
    34    17    41    1
    35    18    19    1
    36    18    20   ar
    37    19    42    1
    38    19    43    1
    39    19    44    1
    40    20    21    1
    41    20    23   ar
    42    21    22    1
    43    22    45    1
    44    22    46    1
    45    22    47    1
    46    23    24   ar
    47    23    48    1
    48    24    25    1
    49    26    27    1
    50    27    28   ar
@<TRIPOS>SUBSTRUCTURE
     1 ZINC000426037318        1 TEMP              0 ****  ****    0 ROOT


##########                                Name:    ZINC000866717058
##########                DOCK_Rotatable_Bonds:                   7
##########                         Heavy_Atoms:                  25
##########                    Molecular_Weight:             380.388
##########                DOCK_Rotatable_Bonds:                   7
##########                       Formal_Charge:                0.04
##########                     HBond_Acceptors:                  10
##########                        HBond_Donors:                   1
##########                         Heavy_Atoms:                  25
##########                          Grid_Score:          -34.071812
##########                     Grid_vdw_energy:          -34.304615
##########                      Grid_es_energy:            0.232802
##########           Internal_energy_repulsive:            9.922071

@<TRIPOS>MOLECULE
ZINC000866717058
 44 45 1 0 0
SMALL
USER_CHARGES


@<TRIPOS>ATOM
      1 C1         -4.9712    3.6699   51.4512 C.3     1  ZINC000866717058   -0.1100
      2 C2         -5.5336    2.2771   51.3303 C.ar    1  ZINC000866717058    0.2400
      3 N3         -6.5537    1.9184   52.0811 N.ar    1  ZINC000866717058   -0.5500
      4 C4         -7.0808    0.7056   52.0091 C.ar    1  ZINC000866717058    0.3500
      5 O5         -8.1310    0.3858   52.8034 O.3     1  ZINC000866717058   -0.2800
      6 C6         -8.9151    1.4681   53.3092 C.3     1  ZINC000866717058    0.0500
      7 H7         -8.2569    2.2795   53.6200 H       1  ZINC000866717058    0.1300
      8 C8         -9.8598    1.9685   52.2147 C.3     1  ZINC000866717058   -0.1700
      9 C9         -9.7338    0.9875   54.5091 C.3     1  ZINC000866717058    0.4600
     10 F10        -8.8950    0.8470   55.6198 F       1  ZINC000866717058   -0.1700
     11 F11       -10.7342    1.9225   54.7956 F       1  ZINC000866717058   -0.1700
     12 F12       -10.3209   -0.2464   54.2090 F       1  ZINC000866717058   -0.1700
     13 C13        -6.5722   -0.2446   51.1293 C.ar    1  ZINC000866717058   -0.1900
     14 C14        -5.5030    0.0870   50.3225 C.ar    1  ZINC000866717058    0.0000
     15 C15        -4.9718    1.3815   50.4193 C.ar    1  ZINC000866717058   -0.2300
     16 C16        -3.8284    1.7868   49.5782 C.2     1  ZINC000866717058    0.5800
     17 O17        -4.0195    2.2022   48.4516 O.2     1  ZINC000866717058   -0.5200
     18 N18        -2.5725    1.6964   50.0591 N.am    1  ZINC000866717058   -0.7400
     19 C19        -1.4377    2.0971   49.2237 C.3     1  ZINC000866717058    0.1400
     20 C20        -0.2435    2.4401   50.1164 C.3     1  ZINC000866717058   -0.5700
     21 H21        -0.5788    2.8670   51.0616 H       1  ZINC000866717058    0.1500
     22 C22         0.6387    1.1885   50.3603 C.3     1  ZINC000866717058   -0.1100
     23 C23         2.0144    1.7024   50.8201 C.3     1  ZINC000866717058   -0.1200
     24 C24         2.4602    2.8354   49.8745 C.3     1  ZINC000866717058   -0.5900
     25 S25         0.9040    3.5823   49.2575 S.o2    1  ZINC000866717058    2.3700
     26 O26         0.8065    3.3759   47.8549 O.2     1  ZINC000866717058   -0.9200
     27 O27         0.7646    4.8908   49.7938 O.2     1  ZINC000866717058   -0.9300
     28 H28        -5.4007    4.3038   50.6755 H       1  ZINC000866717058    0.0900
     29 H29        -5.2179    4.0775   52.4315 H       1  ZINC000866717058    0.0700
     30 H30        -3.8880    3.6358   51.3340 H       1  ZINC000866717058    0.1100
     31 H31       -10.4579    2.7940   52.6005 H       1  ZINC000866717058    0.0900
     32 H32        -9.2766    2.3108   51.3599 H       1  ZINC000866717058    0.0900
     33 H33       -10.5180    1.1571   51.9040 H       1  ZINC000866717058    0.0800
     34 H34        -7.0091   -1.2310   51.0786 H       1  ZINC000866717058    0.1600
     35 H35        -5.0880   -0.6311   49.6308 H       1  ZINC000866717058    0.1500
     36 H36        -2.4202    1.3662   50.9583 H       1  ZINC000866717058    0.4000
     37 H37        -1.1697    1.2771   48.5575 H       1  ZINC000866717058    0.1000
     38 H38        -1.7122    2.9707   48.6325 H       1  ZINC000866717058    0.1000
     39 H39         0.1950    0.5644   51.1359 H       1  ZINC000866717058    0.1100
     40 H40         0.7426    0.6193   49.4366 H       1  ZINC000866717058    0.0900
     41 H41         1.9417    2.0828   51.8390 H       1  ZINC000866717058    0.0900
     42 H42         2.7396    0.8895   50.7854 H       1  ZINC000866717058    0.1000
     43 H43         3.0426    3.5774   50.4209 H       1  ZINC000866717058    0.1400
     44 H44         3.0426    2.4306   49.0469 H       1  ZINC000866717058    0.1400
@<TRIPOS>BOND
     1     1     2    1
     2     1    28    1
     3     1    29    1
     4     1    30    1
     5     2    15   ar
     6     2     3   ar
     7     3     4   ar
     8     4     5    1
     9     4    13   ar
    10     5     6    1
    11     6     7    1
    12     6     8    1
    13     6     9    1
    14     8    31    1
    15     8    32    1
    16     8    33    1
    17     9    10    1
    18     9    11    1
    19     9    12    1
    20    13    14   ar
    21    13    34    1
    22    14    15   ar
    23    14    35    1
    24    15    16    1
    25    16    17    2
    26    16    18   am
    27    18    19    1
    28    18    36    1
    29    19    20    1
    30    19    37    1
    31    19    38    1
    32    20    21    1
    33    20    25    1
    34    20    22    1
    35    22    23    1
    36    22    39    1
    37    22    40    1
    38    23    24    1
    39    23    41    1
    40    23    42    1
    41    24    25    1
    42    24    43    1
    43    24    44    1
    44    25    26    2
    45    25    27    2
@<TRIPOS>SUBSTRUCTURE
     1 ZINC000866717058        1 TEMP              0 ****  ****    0 ROOT


##########                                Name:    ZINC001060578637
##########                DOCK_Rotatable_Bonds:                  10
##########                         Heavy_Atoms:                  25
##########                    Molecular_Weight:             345.401
##########                DOCK_Rotatable_Bonds:                  10
##########                       Formal_Charge:          -0.0400001
##########                     HBond_Acceptors:                   8
##########                        HBond_Donors:                   3
##########                         Heavy_Atoms:                  25
##########                          Grid_Score:          -34.055973
##########                     Grid_vdw_energy:          -33.338383
##########                      Grid_es_energy:           -0.717590
##########           Internal_energy_repulsive:           18.531120

@<TRIPOS>MOLECULE
ZINC001060578637
 48 49 1 0 0
SMALL
USER_CHARGES


@<TRIPOS>ATOM
      1 C1          3.0388    2.6405   52.5011 C.3     1  ZINC001060578637   -0.1500
      2 C2          1.8452    2.6019   51.5448 C.3     1  ZINC001060578637   -0.1300
      3 C3          1.8976    1.3172   50.7153 C.3     1  ZINC001060578637    0.0700
      4 H4          1.8142    0.4544   51.3761 H       1  ZINC001060578637    0.0900
      5 O5          3.1378    1.2573   50.0079 O.3     1  ZINC001060578637   -0.3600
      6 C6          3.3477    2.3485   49.1092 C.3     1  ZINC001060578637    0.0300
      7 C7          0.7568    1.3081   49.7307 C.2     1  ZINC001060578637    0.5000
      8 O8          0.9255    0.8736   48.6111 O.2     1  ZINC001060578637   -0.5200
      9 N9         -0.4510    1.7830   50.0944 N.am    1  ZINC001060578637   -0.7300
     10 C10        -1.5606    1.7726   49.1378 C.3     1  ZINC001060578637    0.1600
     11 C11        -2.8098    2.2785   49.8119 C.ar    1  ZINC001060578637   -0.1100
     12 C12        -3.9325    1.4750   49.8796 C.ar    1  ZINC001060578637   -0.0900
     13 C13        -5.0784    1.9391   50.4980 C.ar    1  ZINC001060578637   -0.1100
     14 C14        -5.1014    3.2066   51.0490 C.ar    1  ZINC001060578637   -0.0900
     15 C15        -6.3507    3.7129   51.7228 C.3     1  ZINC001060578637    0.1800
     16 H16        -6.1947    4.7401   52.0527 H       1  ZINC001060578637    0.1000
     17 C17        -6.6709    2.8319   52.9320 C.3     1  ZINC001060578637   -0.1600
     18 N18        -7.4682    3.6684   50.7766 N.am    1  ZINC001060578637   -0.7000
     19 C19        -8.4387    4.6019   50.8352 C.2     1  ZINC001060578637    0.6100
     20 O20        -8.3874    5.4801   51.6747 O.2     1  ZINC001060578637   -0.5300
     21 C21        -9.5625    4.5580   49.8818 C.2     1  ZINC001060578637    0.1200
     22 N22       -10.3472    5.5607   49.5495 N.2     1  ZINC001060578637   -0.2400
     23 N23       -11.2166    5.1579   48.6919 N.2     1  ZINC001060578637   -0.2900
     24 C24       -11.0340    3.8861   48.4333 C.2     1  ZINC001060578637    0.1900
     25 N25        -9.9851    3.4662   49.1681 N.pl3   1  ZINC001060578637   -0.5500
     26 C26        -3.9782    4.0097   50.9825 C.ar    1  ZINC001060578637   -0.1100
     27 C27        -2.8311    3.5441   50.3676 C.ar    1  ZINC001060578637   -0.0900
     28 H28         2.9846    3.5404   53.1137 H       1  ZINC001060578637    0.0600
     29 H29         3.0174    1.7610   53.1447 H       1  ZINC001060578637    0.0500
     30 H30         3.9649    2.6475   51.9262 H       1  ZINC001060578637    0.0600
     31 H31         0.9189    2.6261   52.1187 H       1  ZINC001060578637    0.0800
     32 H32         1.8838    3.4652   50.8804 H       1  ZINC001060578637    0.0800
     33 H33         4.3420    2.2709   48.6694 H       1  ZINC001060578637    0.0900
     34 H34         2.5975    2.3177   48.3191 H       1  ZINC001060578637    0.0500
     35 H35         3.2636    3.2889   49.6538 H       1  ZINC001060578637    0.0400
     36 H36        -0.5856    2.1317   50.9895 H       1  ZINC001060578637    0.4000
     37 H37        -1.3176    2.4163   48.2925 H       1  ZINC001060578637    0.0800
     38 H38        -1.7255    0.7549   48.7838 H       1  ZINC001060578637    0.0800
     39 H39        -3.9146    0.4846   49.4492 H       1  ZINC001060578637    0.1300
     40 H40        -5.9559    1.3116   50.5503 H       1  ZINC001060578637    0.1300
     41 H41        -6.8268    1.8049   52.6021 H       1  ZINC001060578637    0.0600
     42 H42        -5.8394    2.8651   53.6361 H       1  ZINC001060578637    0.0700
     43 H43        -7.5745    3.1982   53.4193 H       1  ZINC001060578637    0.0700
     44 H44        -7.5097    2.9671   50.1078 H       1  ZINC001060578637    0.4100
     45 H45       -11.6165    3.2842   47.7514 H       1  ZINC001060578637    0.2300
     46 H46        -9.6094    2.5723   49.1916 H       1  ZINC001060578637    0.4400
     47 H47        -3.9961    4.9998   51.4134 H       1  ZINC001060578637    0.1300
     48 H48        -1.9536    4.1716   50.3156 H       1  ZINC001060578637    0.1300
@<TRIPOS>BOND
     1     1     2    1
     2     1    28    1
     3     1    29    1
     4     1    30    1
     5     2     3    1
     6     2    31    1
     7     2    32    1
     8     3     4    1
     9     3     5    1
    10     3     7    1
    11     5     6    1
    12     6    33    1
    13     6    34    1
    14     6    35    1
    15     7     8    2
    16     7     9   am
    17     9    10    1
    18     9    36    1
    19    10    11    1
    20    10    37    1
    21    10    38    1
    22    11    27   ar
    23    11    12   ar
    24    12    13   ar
    25    12    39    1
    26    13    14   ar
    27    13    40    1
    28    14    15    1
    29    14    26   ar
    30    15    16    1
    31    15    17    1
    32    15    18    1
    33    17    41    1
    34    17    42    1
    35    17    43    1
    36    18    19   am
    37    18    44    1
    38    19    20    2
    39    19    21    1
    40    21    25    1
    41    21    22    2
    42    22    23    1
    43    23    24    2
    44    24    25    1
    45    24    45    1
    46    25    46    1
    47    26    27   ar
    48    26    47    1
    49    27    48    1
@<TRIPOS>SUBSTRUCTURE
     1 ZINC001060578637        1 TEMP              0 ****  ****    0 ROOT


##########                                Name:    ZINC000281092425
##########                DOCK_Rotatable_Bonds:                   8
##########                         Heavy_Atoms:                  23
##########                    Molecular_Weight:             332.304
##########                DOCK_Rotatable_Bonds:                   8
##########                       Formal_Charge:         2.98023e-08
##########                     HBond_Acceptors:                   9
##########                        HBond_Donors:                   2
##########                         Heavy_Atoms:                  23
##########                          Grid_Score:          -34.029518
##########                     Grid_vdw_energy:          -30.619333
##########                      Grid_es_energy:           -3.410186
##########           Internal_energy_repulsive:           23.605734

@<TRIPOS>MOLECULE
ZINC000281092425
 41 42 1 0 0
SMALL
USER_CHARGES


@<TRIPOS>ATOM
      1 O1         -6.4245   -1.2334   50.3041 O.2     1  ZINC000281092425   -0.1800
      2 N2         -6.5469   -0.1420   50.8308 N.pl3   1  ZINC000281092425    0.0400
      3 O3         -7.5286    0.0998   51.5101 O.2     1  ZINC000281092425   -0.1500
      4 C4         -5.4999    0.8884   50.6501 C.ar    1  ZINC000281092425   -0.1200
      5 C5         -4.3868    0.6132   49.8793 C.ar    1  ZINC000281092425    0.0200
      6 C6         -3.4072    1.5723   49.7082 C.ar    1  ZINC000281092425   -0.2200
      7 C7         -3.5399    2.8169   50.3112 C.ar    1  ZINC000281092425    0.3000
      8 N8         -2.5500    3.7870   50.1382 N.pl3   1  ZINC000281092425   -0.7200
      9 C9         -1.5905    4.0540   51.2126 C.3     1  ZINC000281092425    0.1200
     10 C10        -0.1929    4.2312   50.6157 C.3     1  ZINC000281092425   -0.0900
     11 H11        -0.2071    5.0475   49.8935 H       1  ZINC000281092425    0.0900
     12 C12         0.8013    4.5555   51.7325 C.3     1  ZINC000281092425    0.0800
     13 O13         1.5394    5.7294   51.3871 O.3     1  ZINC000281092425   -0.5700
     14 C14         0.2304    2.9383   49.9156 C.3     1  ZINC000281092425   -0.1100
     15 H15        -0.4472    2.7041   49.0944 H       1  ZINC000281092425    0.0900
     16 C16         1.6961    3.0368   49.4117 C.3     1  ZINC000281092425   -0.1600
     17 C17         2.1174    1.5460   49.4394 C.3     1  ZINC000281092425    0.0500
     18 O18         1.4667    0.9937   50.5948 O.3     1  ZINC000281092425   -0.3900
     19 C19         0.3019    1.7679   50.9197 C.3     1  ZINC000281092425    0.0700
     20 C20        -4.6579    3.0952   51.0858 C.ar    1  ZINC000281092425   -0.2800
     21 C21        -5.6404    2.1320   51.2507 C.ar    1  ZINC000281092425    0.2300
     22 O22        -6.7364    2.4014   52.0079 O.3     1  ZINC000281092425   -0.2900
     23 C23        -6.5104    2.9917   53.2895 C.3     1  ZINC000281092425    0.4100
     24 F24        -6.4538    4.3834   53.1584 F       1  ZINC000281092425   -0.1900
     25 F25        -7.5557    2.6466   54.1528 F       1  ZINC000281092425   -0.1900
     26 H26        -4.2820   -0.3538   49.4098 H       1  ZINC000281092425    0.1600
     27 H27        -2.5378    1.3545   49.1058 H       1  ZINC000281092425    0.1500
     28 H28        -2.4978    4.2838   49.3068 H       1  ZINC000281092425    0.4100
     29 H29        -1.8787    4.9637   51.7393 H       1  ZINC000281092425    0.0800
     30 H30        -1.5841    3.2167   51.9104 H       1  ZINC000281092425    0.0800
     31 H31         0.2596    4.7274   52.6626 H       1  ZINC000281092425    0.0500
     32 H32         1.4883    3.7191   51.8615 H       1  ZINC000281092425    0.0500
     33 H33         2.0268    5.6569   50.5551 H       1  ZINC000281092425    0.3800
     34 H34         1.7373    3.4379   48.3990 H       1  ZINC000281092425    0.0800
     35 H35         2.3065    3.6302   50.0924 H       1  ZINC000281092425    0.0800
     36 H36         1.7775    1.0399   48.5358 H       1  ZINC000281092425    0.0600
     37 H37         3.1996    1.4605   49.5375 H       1  ZINC000281092425    0.0900
     38 H38         0.3886    2.1586   51.9336 H       1  ZINC000281092425    0.0800
     39 H39        -0.5899    1.1467   50.8366 H       1  ZINC000281092425    0.0700
     40 H40        -4.7637    4.0619   51.5556 H       1  ZINC000281092425    0.1500
     41 H41        -5.5674    2.6265   53.6965 H       1  ZINC000281092425    0.1900
@<TRIPOS>BOND
     1     1     2    2
     2     2     3    2
     3     2     4    1
     4     4    21   ar
     5     4     5   ar
     6     5     6   ar
     7     5    26    1
     8     6     7   ar
     9     6    27    1
    10     7     8    1
    11     7    20   ar
    12     8     9    1
    13     8    28    1
    14     9    10    1
    15     9    29    1
    16     9    30    1
    17    10    11    1
    18    10    12    1
    19    10    14    1
    20    12    13    1
    21    12    31    1
    22    12    32    1
    23    13    33    1
    24    14    15    1
    25    14    19    1
    26    14    16    1
    27    16    17    1
    28    16    34    1
    29    16    35    1
    30    17    18    1
    31    17    36    1
    32    17    37    1
    33    18    19    1
    34    19    38    1
    35    19    39    1
    36    20    21   ar
    37    20    40    1
    38    21    22    1
    39    22    23    1
    40    23    24    1
    41    23    25    1
    42    23    41    1
@<TRIPOS>SUBSTRUCTURE
     1 ZINC000281092425        1 TEMP              0 ****  ****    0 ROOT


##########                                Name:    ZINC000263872566
##########                DOCK_Rotatable_Bonds:                   9
##########                         Heavy_Atoms:                  26
##########                    Molecular_Weight:             362.469
##########                DOCK_Rotatable_Bonds:                   9
##########                       Formal_Charge:           0.0300001
##########                     HBond_Acceptors:                   6
##########                        HBond_Donors:                   2
##########                         Heavy_Atoms:                  26
##########                          Grid_Score:          -33.964352
##########                     Grid_vdw_energy:          -32.079041
##########                      Grid_es_energy:           -1.885311
##########           Internal_energy_repulsive:           17.348394

@<TRIPOS>MOLECULE
ZINC000263872566
 56 57 1 0 0
SMALL
USER_CHARGES


@<TRIPOS>ATOM
      1 C1        -13.3745    0.3149   51.4734 C.3     1  ZINC000263872566   -0.1800
      2 C2        -13.6776   -1.1846   51.4456 C.3     1  ZINC000263872566    0.1400
      3 H3        -14.7516   -1.3362   51.3375 H       1  ZINC000263872566    0.0700
      4 O4        -12.9981   -1.7875   50.3426 O.3     1  ZINC000263872566   -0.5600
      5 C5        -13.2080   -1.8160   52.7308 C.ar    1  ZINC000263872566   -0.0800
      6 C6        -11.9081   -2.2729   52.8417 C.ar    1  ZINC000263872566   -0.0900
      7 C7        -11.4772   -2.8522   54.0206 C.ar    1  ZINC000263872566   -0.1000
      8 C8        -12.3462   -2.9739   55.0887 C.ar    1  ZINC000263872566   -0.1100
      9 C9        -11.8767   -3.6057   56.3739 C.3     1  ZINC000263872566    0.1800
     10 N10       -11.4920   -2.5569   57.3216 N.am    1  ZINC000263872566   -0.7400
     11 C11       -10.4454   -2.7474   58.1491 C.2     1  ZINC000263872566    0.7100
     12 O12        -9.8204   -3.7896   58.1091 O.2     1  ZINC000263872566   -0.5900
     13 N13       -10.0914   -1.7824   59.0211 N.am    1  ZINC000263872566   -0.6300
     14 C14       -10.8406   -0.5201   59.0854 C.3     1  ZINC000263872566    0.1100
     15 C15       -11.2811   -0.2815   60.5330 C.3     1  ZINC000263872566   -0.1200
     16 C16       -10.0567   -0.3332   61.4497 C.3     1  ZINC000263872566   -0.0800
     17 C17       -10.4816   -0.0650   62.8705 C.2     1  ZINC000263872566    0.4700
     18 O18       -11.6437    0.1486   63.1235 O.2     1  ZINC000263872566   -0.5000
     19 O19        -9.5691   -0.0634   63.8549 O.3     1  ZINC000263872566   -0.3500
     20 C20        -9.1972    1.2272   64.4069 C.3     1  ZINC000263872566    0.1200
     21 C21        -9.1754    2.2725   63.2898 C.3     1  ZINC000263872566   -0.1800
     22 C22       -10.2161    1.6393   65.4713 C.3     1  ZINC000263872566   -0.1400
     23 C23        -7.8084    1.1296   65.0412 C.3     1  ZINC000263872566   -0.1800
     24 C24        -9.4109   -1.7179   61.3635 C.3     1  ZINC000263872566   -0.1300
     25 C25        -8.9529   -1.9753   59.9294 C.3     1  ZINC000263872566    0.1300
     26 C26       -13.6457   -2.5156   54.9783 C.ar    1  ZINC000263872566   -0.1000
     27 C27       -14.0754   -1.9331   53.8008 C.ar    1  ZINC000263872566   -0.1100
     28 H28       -12.3006    0.4664   51.5815 H       1  ZINC000263872566    0.0700
     29 H29       -13.7143    0.7715   50.5438 H       1  ZINC000263872566    0.0600
     30 H30       -13.8928    0.7748   52.3148 H       1  ZINC000263872566    0.0700
     31 H31       -13.2510   -1.4285   49.4809 H       1  ZINC000263872566    0.3800
     32 H32       -11.2292   -2.1778   52.0072 H       1  ZINC000263872566    0.1300
     33 H33       -10.4619   -3.2099   54.1070 H       1  ZINC000263872566    0.1300
     34 H34       -12.6823   -4.2034   56.8004 H       1  ZINC000263872566    0.0800
     35 H35       -11.0176   -4.2454   56.1715 H       1  ZINC000263872566    0.0800
     36 H36       -11.9906   -1.7255   57.3536 H       1  ZINC000263872566    0.4000
     37 H37       -10.2024    0.3005   58.7575 H       1  ZINC000263872566    0.0800
     38 H38       -11.7182   -0.5829   58.4419 H       1  ZINC000263872566    0.0800
     39 H39       -11.7542    0.6973   60.6127 H       1  ZINC000263872566    0.0900
     40 H40       -11.9905   -1.0541   60.8295 H       1  ZINC000263872566    0.0800
     41 H41        -9.3368    0.4232   61.1371 H       1  ZINC000263872566    0.1100
     42 H42       -10.1649    2.3421   62.8380 H       1  ZINC000263872566    0.0600
     43 H43        -8.8962    3.2413   63.7042 H       1  ZINC000263872566    0.0700
     44 H44        -8.4495    1.9788   62.5316 H       1  ZINC000263872566    0.0800
     45 H45       -10.2317    0.8947   66.2670 H       1  ZINC000263872566    0.0700
     46 H46        -9.9370    2.6082   65.8855 H       1  ZINC000263872566    0.0800
     47 H47       -11.2057    1.7090   65.0193 H       1  ZINC000263872566    0.0700
     48 H48        -7.0824    0.8359   64.2829 H       1  ZINC000263872566    0.0800
     49 H49        -7.5292    2.0982   65.4556 H       1  ZINC000263872566    0.0700
     50 H50        -7.8239    0.3849   65.8370 H       1  ZINC000263872566    0.0600
     51 H51        -8.5527   -1.7615   62.0342 H       1  ZINC000263872566    0.0900
     52 H52       -10.1378   -2.4770   61.6521 H       1  ZINC000263872566    0.0700
     53 H53        -8.5828   -2.9968   59.8418 H       1  ZINC000263872566    0.1000
     54 H54        -8.1609   -1.2738   59.6673 H       1  ZINC000263872566    0.0700
     55 H55       -14.3245   -2.6105   55.8130 H       1  ZINC000263872566    0.1300
     56 H56       -15.0907   -1.5750   53.7145 H       1  ZINC000263872566    0.1300
@<TRIPOS>BOND
     1     1     2    1
     2     1    28    1
     3     1    29    1
     4     1    30    1
     5     2     3    1
     6     2     4    1
     7     2     5    1
     8     4    31    1
     9     5    27   ar
    10     5     6   ar
    11     6     7   ar
    12     6    32    1
    13     7     8   ar
    14     7    33    1
    15     8     9    1
    16     8    26   ar
    17     9    10    1
    18     9    34    1
    19     9    35    1
    20    10    11   am
    21    10    36    1
    22    11    12    2
    23    11    13   am
    24    13    25    1
    25    13    14    1
    26    14    15    1
    27    14    37    1
    28    14    38    1
    29    15    16    1
    30    15    39    1
    31    15    40    1
    32    16    17    1
    33    16    24    1
    34    16    41    1
    35    17    18    2
    36    17    19    1
    37    19    20    1
    38    20    21    1
    39    20    22    1
    40    20    23    1
    41    21    42    1
    42    21    43    1
    43    21    44    1
    44    22    45    1
    45    22    46    1
    46    22    47    1
    47    23    48    1
    48    23    49    1
    49    23    50    1
    50    24    25    1
    51    24    51    1
    52    24    52    1
    53    25    53    1
    54    25    54    1
    55    26    27   ar
    56    26    55    1
    57    27    56    1
@<TRIPOS>SUBSTRUCTURE
     1 ZINC000263872566        1 TEMP              0 ****  ****    0 ROOT


##########                                Name:    ZINC000986832075
##########                DOCK_Rotatable_Bonds:                   7
##########                         Heavy_Atoms:                  25
##########                    Molecular_Weight:             347.433
##########                DOCK_Rotatable_Bonds:                   7
##########                       Formal_Charge:          -0.0200006
##########                     HBond_Acceptors:                   6
##########                        HBond_Donors:                   1
##########                         Heavy_Atoms:                  25
##########                          Grid_Score:          -33.871529
##########                     Grid_vdw_energy:          -33.165653
##########                      Grid_es_energy:           -0.705874
##########           Internal_energy_repulsive:           40.985447

@<TRIPOS>MOLECULE
ZINC000986832075
 51 53 1 0 0
SMALL
USER_CHARGES


@<TRIPOS>ATOM
      1 C1        -12.8623   -1.4048   51.7195 C.3     1  ZINC000986832075   -0.1700
      2 C2        -11.6400   -1.7561   52.5701 C.3     1  ZINC000986832075    0.1500
      3 H3        -11.1715   -2.6585   52.1777 H       1  ZINC000986832075    0.0900
      4 N4        -10.6808   -0.6496   52.5270 N.am    1  ZINC000986832075   -0.7200
      5 C5         -9.3835   -0.8927   52.2547 C.2     1  ZINC000986832075    0.5600
      6 O6         -9.0095   -2.0296   52.0434 O.2     1  ZINC000986832075   -0.5100
      7 C7         -8.4141    0.2249   52.2129 C.ar    1  ZINC000986832075   -0.1300
      8 C8         -7.0864    0.0113   51.8286 C.ar    1  ZINC000986832075   -0.1100
      9 C9         -6.2154    1.0825   51.8037 C.ar    1  ZINC000986832075    0.0900
     10 N10        -6.6186    2.2930   52.1358 N.ar    1  ZINC000986832075   -0.4400
     11 C11        -7.8591    2.5411   52.5040 C.ar    1  ZINC000986832075    0.0700
     12 C12        -8.8019    1.5277   52.5518 C.ar    1  ZINC000986832075    0.1100
     13 F13       -10.0721    1.7893   52.9303 F       1  ZINC000986832075   -0.1000
     14 C14       -12.0771   -1.9961   54.0166 C.3     1  ZINC000986832075   -0.1000
     15 C15       -11.8166   -3.4566   54.3922 C.3     1  ZINC000986832075   -0.1300
     16 C16       -12.2871   -3.7019   55.8294 C.3     1  ZINC000986832075    0.1100
     17 N17       -11.6353   -2.7259   56.7133 N.am    1  ZINC000986832075   -0.6100
     18 C18       -10.9480   -3.1341   57.7984 C.2     1  ZINC000986832075    0.5200
     19 O19       -10.8631   -4.3168   58.0530 O.2     1  ZINC000986832075   -0.5300
     20 C20       -10.2850   -2.1208   58.6954 C.3     1  ZINC000986832075   -0.0800
     21 H21        -9.7136   -1.4177   58.0893 H       1  ZINC000986832075    0.0900
     22 C22        -9.3453   -2.8374   59.6673 C.3     1  ZINC000986832075   -0.1400
     23 C23       -11.3536   -1.3621   59.4851 C.3     1  ZINC000986832075   -0.1400
     24 C24       -11.3533   -1.5210   61.0069 C.3     1  ZINC000986832075   -0.1800
     25 C25       -10.8880   -0.2077   60.3747 C.3     1  ZINC000986832075   -0.1700
     26 C26       -11.7468   -1.2966   56.3917 C.3     1  ZINC000986832075    0.1000
     27 C27       -11.2822   -1.0784   54.9483 C.3     1  ZINC000986832075   -0.1300
     28 H28       -12.5509   -1.2339   50.6890 H       1  ZINC000986832075    0.0600
     29 H29       -13.5760   -2.2281   51.7517 H       1  ZINC000986832075    0.0700
     30 H30       -13.3309   -0.5023   52.1120 H       1  ZINC000986832075    0.0600
     31 H31       -10.9794    0.2580   52.6944 H       1  ZINC000986832075    0.4000
     32 H32        -6.7474   -0.9771   51.5555 H       1  ZINC000986832075    0.1500
     33 H33        -5.1884    0.9263   51.5080 H       1  ZINC000986832075    0.1700
     34 H34        -8.1453    3.5484   52.7680 H       1  ZINC000986832075    0.1800
     35 H35       -13.1410   -1.7802   54.1151 H       1  ZINC000986832075    0.0800
     36 H36       -12.3645   -4.1102   53.7134 H       1  ZINC000986832075    0.0700
     37 H37       -10.7495   -3.6665   54.3180 H       1  ZINC000986832075    0.0800
     38 H38       -13.3688   -3.5803   55.8854 H       1  ZINC000986832075    0.0700
     39 H39       -12.0144   -4.7117   56.1358 H       1  ZINC000986832075    0.0900
     40 H40        -9.8997   -3.6023   60.2111 H       1  ZINC000986832075    0.0600
     41 H41        -8.5333   -3.3043   59.1099 H       1  ZINC000986832075    0.0600
     42 H42        -8.9337   -2.1159   60.3732 H       1  ZINC000986832075    0.0700
     43 H43       -12.3190   -1.2582   58.9898 H       1  ZINC000986832075    0.1100
     44 H44       -12.3187   -1.5218   61.5130 H       1  ZINC000986832075    0.1000
     45 H45       -10.5919   -2.1660   61.4455 H       1  ZINC000986832075    0.0900
     46 H46        -9.8205    0.0114   60.3974 H       1  ZINC000986832075    0.0900
     47 H47       -11.5474    0.6556   60.4650 H       1  ZINC000986832075    0.1000
     48 H48       -12.7844   -0.9790   56.4936 H       1  ZINC000986832075    0.0700
     49 H49       -11.1175   -0.7194   57.0693 H       1  ZINC000986832075    0.0900
     50 H50       -10.2203   -1.3108   54.8688 H       1  ZINC000986832075    0.0800
     51 H51       -11.4500   -0.0392   54.6654 H       1  ZINC000986832075    0.0800
@<TRIPOS>BOND
     1     1     2    1
     2     1    28    1
     3     1    29    1
     4     1    30    1
     5     2     3    1
     6     2     4    1
     7     2    14    1
     8     4     5   am
     9     4    31    1
    10     5     6    2
    11     5     7    1
    12     7    12   ar
    13     7     8   ar
    14     8     9   ar
    15     8    32    1
    16     9    10   ar
    17     9    33    1
    18    10    11   ar
    19    11    12   ar
    20    11    34    1
    21    12    13    1
    22    14    27    1
    23    14    15    1
    24    14    35    1
    25    15    16    1
    26    15    36    1
    27    15    37    1
    28    16    17    1
    29    16    38    1
    30    16    39    1
    31    17    18   am
    32    17    26    1
    33    18    19    2
    34    18    20    1
    35    20    21    1
    36    20    22    1
    37    20    23    1
    38    22    40    1
    39    22    41    1
    40    22    42    1
    41    23    25    1
    42    23    24    1
    43    23    43    1
    44    24    25    1
    45    24    44    1
    46    24    45    1
    47    25    46    1
    48    25    47    1
    49    26    27    1
    50    26    48    1
    51    26    49    1
    52    27    50    1
    53    27    51    1
@<TRIPOS>SUBSTRUCTURE
     1 ZINC000986832075        1 TEMP              0 ****  ****    0 ROOT


##########                                Name:    ZINC000065993627
##########                DOCK_Rotatable_Bonds:                   7
##########                         Heavy_Atoms:                  28
##########                    Molecular_Weight:             382.462
##########                DOCK_Rotatable_Bonds:                   7
##########                       Formal_Charge:          -0.0200002
##########                     HBond_Acceptors:                   7
##########                        HBond_Donors:                   2
##########                         Heavy_Atoms:                  28
##########                          Grid_Score:          -33.862061
##########                     Grid_vdw_energy:          -34.453251
##########                      Grid_es_energy:            0.591191
##########           Internal_energy_repulsive:           20.439486

@<TRIPOS>MOLECULE
ZINC000065993627
 54 56 1 0 0
SMALL
USER_CHARGES


@<TRIPOS>ATOM
      1 C1        -10.5575   -2.5210   52.3483 C.3     1  ZINC000065993627   -0.1200
      2 C2        -10.8821   -2.0876   53.7547 C.ar    1  ZINC000065993627   -0.0700
      3 C3        -11.0986   -3.0343   54.7359 C.ar    1  ZINC000065993627   -0.1800
      4 C4        -11.3977   -2.6349   56.0322 C.ar    1  ZINC000065993627    0.2000
      5 N5        -11.6169   -3.5942   57.0269 N.pl3   1  ZINC000065993627   -0.6400
      6 C6        -10.5746   -3.8731   58.0179 C.3     1  ZINC000065993627    0.1000
      7 C7        -12.8887   -4.3195   57.0775 C.3     1  ZINC000065993627    0.0900
      8 C8        -11.4788   -1.2835   56.3408 C.ar    1  ZINC000065993627   -0.1800
      9 C9        -11.2621   -0.3369   55.3589 C.ar    1  ZINC000065993627   -0.0800
     10 C10       -10.9576   -0.7363   54.0648 C.ar    1  ZINC000065993627    0.1100
     11 N11       -10.7373    0.2249   53.0682 N.am    1  ZINC000065993627   -0.6800
     12 C12        -9.9093    1.2620   53.3036 C.2     1  ZINC000065993627    0.7000
     13 O13        -9.3535    1.3641   54.3802 O.2     1  ZINC000065993627   -0.5700
     14 N14        -9.6975    2.1860   52.3456 N.am    1  ZINC000065993627   -0.7400
     15 C15        -8.7962    3.3124   52.6008 C.3     1  ZINC000065993627    0.2100
     16 H16        -8.6570    3.4302   53.6754 H       1  ZINC000065993627    0.1000
     17 C17        -9.4026    4.5922   52.0217 C.3     1  ZINC000065993627   -0.1600
     18 C18        -7.4640    3.0477   51.9477 C.ar    1  ZINC000065993627   -0.1200
     19 C19        -6.3052    3.0935   52.7009 C.ar    1  ZINC000065993627   -0.0800
     20 C20        -5.0827    2.8516   52.1053 C.ar    1  ZINC000065993627   -0.1500
     21 C21        -5.0182    2.5621   50.7488 C.ar    1  ZINC000065993627    0.1800
     22 N22        -3.7811    2.3160   50.1423 N.am    1  ZINC000065993627   -0.5700
     23 C23        -2.5913    1.7733   50.8155 C.3     1  ZINC000065993627    0.0600
     24 C24        -1.5338    1.7092   49.6967 C.3     1  ZINC000065993627    0.0400
     25 O25        -2.2312    2.2173   48.5226 O.3     1  ZINC000065993627   -0.3200
     26 C26        -3.4892    2.5311   48.8523 C.2     1  ZINC000065993627    0.6400
     27 O27        -4.2911    2.9788   48.0566 O.2     1  ZINC000065993627   -0.5000
     28 C28        -6.1837    2.5169   49.9952 C.ar    1  ZINC000065993627   -0.1500
     29 C29        -7.4036    2.7542   50.5978 C.ar    1  ZINC000065993627   -0.0800
     30 H30        -9.4777   -2.6221   52.2393 H       1  ZINC000065993627    0.0700
     31 H31       -11.0347   -3.4794   52.1441 H       1  ZINC000065993627    0.0700
     32 H32       -10.9253   -1.7746   51.6442 H       1  ZINC000065993627    0.0600
     33 H33       -11.0359   -4.0854   54.4956 H       1  ZINC000065993627    0.1200
     34 H34       -10.7058   -3.2163   58.8779 H       1  ZINC000065993627    0.0500
     35 H35       -10.6478   -4.9119   58.3397 H       1  ZINC000065993627    0.0700
     36 H36        -9.5947   -3.6986   57.5736 H       1  ZINC000065993627    0.0700
     37 H37       -13.4979   -4.0452   56.2163 H       1  ZINC000065993627    0.0800
     38 H38       -12.6961   -5.3921   57.0595 H       1  ZINC000065993627    0.0500
     39 H39       -13.4183   -4.0608   57.9944 H       1  ZINC000065993627    0.0500
     40 H40       -11.7117   -0.9727   57.3486 H       1  ZINC000065993627    0.1300
     41 H41       -11.3252    0.7142   55.5989 H       1  ZINC000065993627    0.1500
     42 H42       -11.1806    0.1434   52.2093 H       1  ZINC000065993627    0.4000
     43 H43       -10.1418    2.1053   51.4872 H       1  ZINC000065993627    0.4000
     44 H44       -10.3661    4.7836   52.4941 H       1  ZINC000065993627    0.0700
     45 H45        -8.7320    5.4302   52.2115 H       1  ZINC000065993627    0.0700
     46 H46        -9.5418    4.4744   50.9471 H       1  ZINC000065993627    0.0600
     47 H47        -6.3560    3.3191   53.7559 H       1  ZINC000065993627    0.1300
     48 H48        -4.1781    2.8877   52.6940 H       1  ZINC000065993627    0.1600
     49 H49        -2.2648    2.4405   51.6132 H       1  ZINC000065993627    0.1000
     50 H50        -2.7945    0.7768   51.2079 H       1  ZINC000065993627    0.1000
     51 H51        -0.6816    2.3440   49.9395 H       1  ZINC000065993627    0.1100
     52 H52        -1.2112    0.6807   49.5343 H       1  ZINC000065993627    0.1100
     53 H53        -6.1367    2.2924   48.9398 H       1  ZINC000065993627    0.1300
     54 H54        -8.3104    2.7189   50.0124 H       1  ZINC000065993627    0.1300
@<TRIPOS>BOND
     1     1     2    1
     2     1    30    1
     3     1    31    1
     4     1    32    1
     5     2    10   ar
     6     2     3   ar
     7     3     4   ar
     8     3    33    1
     9     4     5    1
    10     4     8   ar
    11     5     6    1
    12     5     7    1
    13     6    34    1
    14     6    35    1
    15     6    36    1
    16     7    37    1
    17     7    38    1
    18     7    39    1
    19     8     9   ar
    20     8    40    1
    21     9    10   ar
    22     9    41    1
    23    10    11    1
    24    11    12   am
    25    11    42    1
    26    12    13    2
    27    12    14   am
    28    14    15    1
    29    14    43    1
    30    15    16    1
    31    15    17    1
    32    15    18    1
    33    17    44    1
    34    17    45    1
    35    17    46    1
    36    18    29   ar
    37    18    19   ar
    38    19    20   ar
    39    19    47    1
    40    20    21   ar
    41    20    48    1
    42    21    22    1
    43    21    28   ar
    44    22    26   am
    45    22    23    1
    46    23    24    1
    47    23    49    1
    48    23    50    1
    49    24    25    1
    50    24    51    1
    51    24    52    1
    52    25    26    1
    53    26    27    2
    54    28    29   ar
    55    28    53    1
    56    29    54    1
@<TRIPOS>SUBSTRUCTURE
     1 ZINC000065993627        1 TEMP              0 ****  ****    0 ROOT


##########                                Name:    ZINC000573150059
##########                DOCK_Rotatable_Bonds:                   7
##########                         Heavy_Atoms:                  23
##########                    Molecular_Weight:             378.269
##########                DOCK_Rotatable_Bonds:                   7
##########                       Formal_Charge:        -2.98023e-07
##########                     HBond_Acceptors:                   5
##########                        HBond_Donors:                   2
##########                         Heavy_Atoms:                  23
##########                          Grid_Score:          -33.853115
##########                     Grid_vdw_energy:          -33.048286
##########                      Grid_es_energy:           -0.804829
##########           Internal_energy_repulsive:            6.648407

@<TRIPOS>MOLECULE
ZINC000573150059
 43 44 1 0 0
SMALL
USER_CHARGES


@<TRIPOS>ATOM
      1 C1         -6.7182   -0.4289   50.7041 C.3     1  ZINC000573150059    0.0300
      2 O2         -7.5689    0.5229   51.3462 O.3     1  ZINC000573150059   -0.3600
      3 C3         -7.8657    0.2112   52.7088 C.3     1  ZINC000573150059    0.0700
      4 H4         -7.1160   -0.4793   53.0951 H       1  ZINC000573150059    0.0900
      5 C5         -7.8529    1.4954   53.5403 C.3     1  ZINC000573150059   -0.1700
      6 C6         -9.2279   -0.4281   52.7927 C.2     1  ZINC000573150059    0.5100
      7 O7         -9.4955   -1.3798   52.0900 O.2     1  ZINC000573150059   -0.4900
      8 N8        -10.1487    0.0578   53.6484 N.am    1  ZINC000573150059   -0.6700
      9 C9        -11.4134   -0.5357   53.7262 C.ar    1  ZINC000573150059    0.1900
     10 C10       -12.5349    0.1576   53.2888 C.ar    1  ZINC000573150059   -0.2000
     11 C11       -13.7844   -0.4276   53.3653 C.ar    1  ZINC000573150059   -0.0500
     12 C12       -13.9227   -1.7035   53.8760 C.ar    1  ZINC000573150059   -0.2200
     13 C13       -12.8046   -2.4028   54.3150 C.ar    1  ZINC000573150059    0.2400
     14 N14       -12.9451   -3.6930   54.8309 N.pl3   1  ZINC000573150059   -0.7300
     15 C15       -13.5485   -3.8925   56.1509 C.3     1  ZINC000573150059    0.2000
     16 H16       -14.3990   -3.2207   56.2668 H       1  ZINC000573150059    0.1000
     17 C17       -14.0216   -5.3416   56.2817 C.3     1  ZINC000573150059   -0.1700
     18 C18       -12.5273   -3.5991   57.2196 C.ar    1  ZINC000573150059    0.1400
     19 C19       -12.7140   -2.5220   58.0650 C.ar    1  ZINC000573150059   -0.1600
     20 C20       -11.7690   -2.2606   59.0454 C.ar    1  ZINC000573150059   -0.0400
     21 C21       -10.6662   -3.0967   59.1388 C.ar    1  ZINC000573150059   -0.1500
     22 Br22       -9.3430   -2.7932   60.4552 Br      1  ZINC000573150059   -0.0300
     23 C23       -10.5472   -4.1558   58.2571 C.ar    1  ZINC000573150059    0.1400
     24 N24       -11.4688   -4.3765   57.3404 N.ar    1  ZINC000573150059   -0.4700
     25 C25       -11.5480   -1.8196   54.2351 C.ar    1  ZINC000573150059   -0.1900
     26 H26        -5.7683   -0.4839   51.2358 H       1  ZINC000573150059    0.0500
     27 H27        -7.1968   -1.4082   50.7132 H       1  ZINC000573150059    0.0400
     28 H28        -6.5406   -0.1207   49.6738 H       1  ZINC000573150059    0.0900
     29 H29        -8.6027    2.1859   53.1539 H       1  ZINC000573150059    0.0700
     30 H30        -8.0793    1.2576   54.5797 H       1  ZINC000573150059    0.0700
     31 H31        -6.8678    1.9577   53.4797 H       1  ZINC000573150059    0.0700
     32 H32        -9.9347    0.8189   54.2104 H       1  ZINC000573150059    0.4100
     33 H33       -12.4301    1.1554   52.8889 H       1  ZINC000573150059    0.1200
     34 H34       -14.6547    0.1139   53.0251 H       1  ZINC000573150059    0.1300
     35 H35       -14.9006   -2.1580   53.9347 H       1  ZINC000573150059    0.1200
     36 H36       -12.6430   -4.4572   54.3153 H       1  ZINC000573150059    0.4100
     37 H37       -13.1711   -6.0134   56.1658 H       1  ZINC000573150059    0.0600
     38 H38       -14.4706   -5.4900   57.2637 H       1  ZINC000573150059    0.0700
     39 H39       -14.7602   -5.5538   55.5086 H       1  ZINC000573150059    0.0700
     40 H40       -13.5849   -1.8916   57.9631 H       1  ZINC000573150059    0.1500
     41 H41       -11.8886   -1.4256   59.7199 H       1  ZINC000573150059    0.1500
     42 H42        -9.6916   -4.8115   58.3227 H       1  ZINC000573150059    0.1700
     43 H43       -10.6775   -2.3609   54.5751 H       1  ZINC000573150059    0.1400
@<TRIPOS>BOND
     1     1     2    1
     2     1    26    1
     3     1    27    1
     4     1    28    1
     5     2     3    1
     6     3     4    1
     7     3     5    1
     8     3     6    1
     9     5    29    1
    10     5    30    1
    11     5    31    1
    12     6     7    2
    13     6     8   am
    14     8     9    1
    15     8    32    1
    16     9    25   ar
    17     9    10   ar
    18    10    11   ar
    19    10    33    1
    20    11    12   ar
    21    11    34    1
    22    12    13   ar
    23    12    35    1
    24    13    14    1
    25    13    25   ar
    26    14    15    1
    27    14    36    1
    28    15    16    1
    29    15    17    1
    30    15    18    1
    31    17    37    1
    32    17    38    1
    33    17    39    1
    34    18    24   ar
    35    18    19   ar
    36    19    20   ar
    37    19    40    1
    38    20    21   ar
    39    20    41    1
    40    21    22    1
    41    21    23   ar
    42    23    24   ar
    43    23    42    1
    44    25    43    1
@<TRIPOS>SUBSTRUCTURE
     1 ZINC000573150059        1 TEMP              0 ****  ****    0 ROOT


##########                                Name:    ZINC000847397179
##########                DOCK_Rotatable_Bonds:                   9
##########                         Heavy_Atoms:                  25
##########                    Molecular_Weight:             350.461
##########                DOCK_Rotatable_Bonds:                   9
##########                       Formal_Charge:          0.00999979
##########                     HBond_Acceptors:                   7
##########                        HBond_Donors:                   2
##########                         Heavy_Atoms:                  25
##########                          Grid_Score:          -33.795536
##########                     Grid_vdw_energy:          -33.393417
##########                      Grid_es_energy:           -0.402119
##########           Internal_energy_repulsive:           85.426842

@<TRIPOS>MOLECULE
ZINC000847397179
 55 56 1 0 0
SMALL
USER_CHARGES


@<TRIPOS>ATOM
      1 C1         -6.5777    2.3864   49.6857 C.3     1  ZINC000847397179   -0.1500
      2 C2         -5.6111    1.2982   50.1570 C.3     1  ZINC000847397179   -0.1000
      3 H3         -5.8866    0.3462   49.7034 H       1  ZINC000847397179    0.0900
      4 C4         -5.6831    1.1770   51.6805 C.3     1  ZINC000847397179   -0.0200
      5 C5         -6.9984    0.5552   52.0733 C.2     1  ZINC000847397179    0.0100
      6 C6         -8.0443    1.1989   52.6258 C.2     1  ZINC000847397179   -0.0500
      7 N7         -9.0266    0.2653   52.8193 N.pl3   1  ZINC000847397179   -0.5700
      8 C8         -8.5463   -0.9171   52.3780 C.2     1  ZINC000847397179    0.1800
      9 N9         -7.3347   -0.7351   51.9287 N.2     1  ZINC000847397179   -0.4900
     10 C10        -4.2070    1.6620   49.7479 C.2     1  ZINC000847397179    0.5200
     11 O11        -4.0091    2.2193   48.6890 O.2     1  ZINC000847397179   -0.5300
     12 N12        -3.1713    1.3680   50.5587 N.am    1  ZINC000847397179   -0.7400
     13 C13        -1.8062    1.7201   50.1602 C.3     1  ZINC000847397179    0.1200
     14 C14        -1.5679    3.2093   50.4175 C.3     1  ZINC000847397179    0.1500
     15 H15        -2.1985    3.8005   49.7536 H       1  ZINC000847397179    0.0800
     16 C16        -1.9056    3.5391   51.8750 C.3     1  ZINC000847397179   -0.1300
     17 C17        -1.5342    4.9954   52.1637 C.3     1  ZINC000847397179   -0.1200
     18 C18        -0.0297    5.1897   51.9606 C.3     1  ZINC000847397179   -0.1400
     19 C19         0.3293    4.8788   50.5042 C.3     1  ZINC000847397179    0.1100
     20 N20        -0.1556    3.5318   50.1718 N.am    1  ZINC000847397179   -0.5900
     21 C21         0.6803    2.6088   49.6565 C.2     1  ZINC000847397179    0.6500
     22 O22         0.2672    1.4986   49.3859 O.2     1  ZINC000847397179   -0.5500
     23 O23         1.9732    2.9169   49.4413 O.3     1  ZINC000847397179   -0.3600
     24 C24         2.3819    3.1205   48.0630 C.3     1  ZINC000847397179    0.1400
     25 C25         2.6262    1.7645   47.3979 C.3     1  ZINC000847397179   -0.1800
     26 C26         1.2796    3.8671   47.3091 C.3     1  ZINC000847397179   -0.1400
     27 C27         3.6707    3.9445   48.0297 C.3     1  ZINC000847397179   -0.1800
     28 H28        -6.3022    3.3384   50.1393 H       1  ZINC000847397179    0.0500
     29 H29        -6.5264    2.4727   48.6003 H       1  ZINC000847397179    0.0500
     30 H30        -7.5933    2.1233   49.9817 H       1  ZINC000847397179    0.1000
     31 H31        -4.8647    0.5499   52.0342 H       1  ZINC000847397179    0.0800
     32 H32        -5.6014    2.1675   52.1280 H       1  ZINC000847397179    0.0800
     33 H33        -8.0978    2.2496   52.8698 H       1  ZINC000847397179    0.1800
     34 H34        -9.9038    0.4236   53.2020 H       1  ZINC000847397179    0.4200
     35 H35        -9.0783   -1.8569   52.3909 H       1  ZINC000847397179    0.2100
     36 H36        -3.3298    0.9234   51.4060 H       1  ZINC000847397179    0.3900
     37 H37        -1.0952    1.1326   50.7409 H       1  ZINC000847397179    0.0800
     38 H38        -1.6715    1.5087   49.0994 H       1  ZINC000847397179    0.1000
     39 H39        -2.9731    3.3959   52.0424 H       1  ZINC000847397179    0.0800
     40 H40        -1.3417    2.8817   52.5368 H       1  ZINC000847397179    0.0700
     41 H41        -2.0798    5.6507   51.4848 H       1  ZINC000847397179    0.0700
     42 H42        -1.7962    5.2397   53.1931 H       1  ZINC000847397179    0.0700
     43 H43         0.2379    6.2214   52.1890 H       1  ZINC000847397179    0.0800
     44 H44         0.5165    4.5168   52.6216 H       1  ZINC000847397179    0.0700
     45 H45        -0.1450    5.6079   49.8472 H       1  ZINC000847397179    0.0700
     46 H46         1.4112    4.9192   50.3779 H       1  ZINC000847397179    0.0900
     47 H47         1.7082    1.1774   47.4216 H       1  ZINC000847397179    0.0600
     48 H48         2.9332    1.9173   46.3632 H       1  ZINC000847397179    0.0700
     49 H49         3.4116    1.2325   47.9350 H       1  ZINC000847397179    0.0900
     50 H50         1.1056    4.8332   47.7829 H       1  ZINC000847397179    0.0700
     51 H51         1.5865    4.0199   46.2744 H       1  ZINC000847397179    0.0800
     52 H52         0.3615    3.2801   47.3328 H       1  ZINC000847397179    0.0700
     53 H53         4.4561    3.4125   48.5668 H       1  ZINC000847397179    0.0900
     54 H54         3.9776    4.0973   46.9950 H       1  ZINC000847397179    0.0700
     55 H55         3.4966    4.9105   48.5035 H       1  ZINC000847397179    0.0600
@<TRIPOS>BOND
     1     1     2    1
     2     1    28    1
     3     1    29    1
     4     1    30    1
     5     2     3    1
     6     2     4    1
     7     2    10    1
     8     4     5    1
     9     4    31    1
    10     4    32    1
    11     5     9    1
    12     5     6    2
    13     6     7    1
    14     6    33    1
    15     7     8    1
    16     7    34    1
    17     8     9    2
    18     8    35    1
    19    10    11    2
    20    10    12   am
    21    12    13    1
    22    12    36    1
    23    13    14    1
    24    13    37    1
    25    13    38    1
    26    14    15    1
    27    14    20    1
    28    14    16    1
    29    16    17    1
    30    16    39    1
    31    16    40    1
    32    17    18    1
    33    17    41    1
    34    17    42    1
    35    18    19    1
    36    18    43    1
    37    18    44    1
    38    19    20    1
    39    19    45    1
    40    19    46    1
    41    20    21   am
    42    21    22    2
    43    21    23    1
    44    23    24    1
    45    24    25    1
    46    24    26    1
    47    24    27    1
    48    25    47    1
    49    25    48    1
    50    25    49    1
    51    26    50    1
    52    26    51    1
    53    26    52    1
    54    27    53    1
    55    27    54    1
    56    27    55    1
@<TRIPOS>SUBSTRUCTURE
     1 ZINC000847397179        1 TEMP              0 ****  ****    0 ROOT


##########                                Name:    ZINC000555499135
##########                DOCK_Rotatable_Bonds:                   8
##########                         Heavy_Atoms:                  26
##########                    Molecular_Weight:             377.554
##########                DOCK_Rotatable_Bonds:                   8
##########                       Formal_Charge:           0.0399999
##########                     HBond_Acceptors:                   7
##########                        HBond_Donors:                   0
##########                         Heavy_Atoms:                  26
##########                          Grid_Score:          -33.786118
##########                     Grid_vdw_energy:          -33.697048
##########                      Grid_es_energy:           -0.089068
##########           Internal_energy_repulsive:           13.905785

@<TRIPOS>MOLECULE
ZINC000555499135
 57 59 1 0 0
SMALL
USER_CHARGES


@<TRIPOS>ATOM
      1 C1          2.0291    3.0438   47.8290 C.3     1  ZINC000555499135   -0.1500
      2 C2          2.0529    2.7832   49.3365 C.3     1  ZINC000555499135   -0.0500
      3 C3          0.6404    2.7191   49.8575 C.2     1  ZINC000555499135   -0.2100
      4 C4         -0.0705    3.7470   50.3308 C.2     1  ZINC000555499135    0.0300
      5 N5         -1.2872    3.4331   50.7281 N.2     1  ZINC000555499135   -0.4500
      6 C6         -1.6422    2.1977   50.6161 C.2     1  ZINC000555499135    0.0400
      7 C7         -2.9873    1.6473   51.0147 C.3     1  ZINC000555499135    0.1500
      8 N8         -4.0480    2.4229   50.3580 N.3     1  ZINC000555499135   -0.4500
      9 C9         -3.9772    2.2801   48.8976 C.3     1  ZINC000555499135    0.0100
     10 C10        -5.2975    2.0569   50.8327 C.2     1  ZINC000555499135    0.3500
     11 N11        -5.8078    0.8480   50.8344 N.2     1  ZINC000555499135   -0.3100
     12 N12        -6.9851    0.8718   51.3495 N.2     1  ZINC000555499135   -0.2900
     13 C13        -7.2932    2.0872   51.7041 C.2     1  ZINC000555499135    0.2100
     14 C14        -8.5829    2.5309   52.3451 C.3     1  ZINC000555499135   -0.0300
     15 C15        -9.3055    1.3162   52.9310 C.3     1  ZINC000555499135   -0.0900
     16 C16        -8.7672    1.0304   54.3343 C.3     1  ZINC000555499135   -0.1500
     17 C17       -10.8061    1.6042   53.0091 C.3     1  ZINC000555499135   -0.1500
     18 N18        -6.2270    2.8846   51.3921 N.pl3   1  ZINC000555499135   -0.4600
     19 C19        -6.1103    4.3291   51.6062 C.3     1  ZINC000555499135    0.1100
     20 C20        -5.5351    4.5935   52.9990 C.3     1  ZINC000555499135    0.0700
     21 H21        -6.0656    5.4271   53.4591 H       1  ZINC000555499135    0.0700
     22 C22        -4.0481    4.9377   52.8804 C.3     1  ZINC000555499135   -0.1500
     23 C23        -3.4658    5.1419   54.2824 C.3     1  ZINC000555499135   -0.1200
     24 C24        -3.7052    3.8767   55.1120 C.3     1  ZINC000555499135   -0.1600
     25 C25        -5.2055    3.5734   55.1444 C.3     1  ZINC000555499135    0.0600
     26 O26        -5.6895    3.4257   53.8080 O.3     1  ZINC000555499135   -0.3700
     27 S27        -0.3685    1.2770   49.9430 S.3     1  ZINC000555499135    0.1200
     28 H28         1.4938    2.2365   47.3292 H       1  ZINC000555499135    0.0600
     29 H29         1.5259    3.9903   47.6317 H       1  ZINC000555499135    0.0600
     30 H30         3.0508    3.0901   47.4521 H       1  ZINC000555499135    0.0700
     31 H31         2.5562    1.8367   49.5336 H       1  ZINC000555499135    0.0900
     32 H32         2.5883    3.5905   49.8362 H       1  ZINC000555499135    0.0800
     33 H33         0.3201    4.7524   50.3836 H       1  ZINC000555499135    0.1800
     34 H34        -3.0579    0.6035   50.7089 H       1  ZINC000555499135    0.0800
     35 H35        -3.1026    1.7175   52.0964 H       1  ZINC000555499135    0.1200
     36 H36        -4.2132    1.2525   48.6212 H       1  ZINC000555499135    0.0500
     37 H37        -4.6943    2.9557   48.4313 H       1  ZINC000555499135    0.0800
     38 H38        -2.9715    2.5262   48.5569 H       1  ZINC000555499135    0.0900
     39 H39        -8.3666    3.2437   53.1408 H       1  ZINC000555499135    0.1000
     40 H40        -9.2170    3.0044   51.5955 H       1  ZINC000555499135    0.1000
     41 H41        -9.1346    0.4492   52.2927 H       1  ZINC000555499135    0.0800
     42 H42        -7.6911    0.8647   54.2839 H       1  ZINC000555499135    0.0500
     43 H43        -8.9738    1.8818   54.9829 H       1  ZINC000555499135    0.0600
     44 H44        -9.2534    0.1413   54.7358 H       1  ZINC000555499135    0.0600
     45 H45       -11.1895    1.8077   52.0092 H       1  ZINC000555499135    0.0600
     46 H46       -11.3209    0.7388   53.4264 H       1  ZINC000555499135    0.0600
     47 H47       -10.9768    2.4713   53.6472 H       1  ZINC000555499135    0.0600
     48 H48        -5.4481    4.7556   50.8527 H       1  ZINC000555499135    0.1100
     49 H49        -7.0953    4.7890   51.5265 H       1  ZINC000555499135    0.1200
     50 H50        -3.5238    4.1214   52.3836 H       1  ZINC000555499135    0.0800
     51 H51        -3.9312    5.8533   52.3006 H       1  ZINC000555499135    0.0800
     52 H52        -2.3951    5.3322   54.2084 H       1  ZINC000555499135    0.0700
     53 H53        -3.9559    5.9899   54.7609 H       1  ZINC000555499135    0.0600
     54 H54        -3.1740    3.0390   54.6602 H       1  ZINC000555499135    0.0700
     55 H55        -3.3433    4.0334   56.1282 H       1  ZINC000555499135    0.0800
     56 H56        -5.3779    2.6503   55.6976 H       1  ZINC000555499135    0.1000
     57 H57        -5.7317    4.3937   55.6327 H       1  ZINC000555499135    0.0500
@<TRIPOS>BOND
     1     1     2    1
     2     1    28    1
     3     1    29    1
     4     1    30    1
     5     2     3    1
     6     2    31    1
     7     2    32    1
     8     3    27    1
     9     3     4    2
    10     4     5    1
    11     4    33    1
    12     5     6    2
    13     6     7    1
    14     6    27    1
    15     7     8    1
    16     7    34    1
    17     7    35    1
    18     8     9    1
    19     8    10    1
    20     9    36    1
    21     9    37    1
    22     9    38    1
    23    10    18    1
    24    10    11    2
    25    11    12    1
    26    12    13    2
    27    13    14    1
    28    13    18    1
    29    14    15    1
    30    14    39    1
    31    14    40    1
    32    15    16    1
    33    15    17    1
    34    15    41    1
    35    16    42    1
    36    16    43    1
    37    16    44    1
    38    17    45    1
    39    17    46    1
    40    17    47    1
    41    18    19    1
    42    19    20    1
    43    19    48    1
    44    19    49    1
    45    20    21    1
    46    20    26    1
    47    20    22    1
    48    22    23    1
    49    22    50    1
    50    22    51    1
    51    23    24    1
    52    23    52    1
    53    23    53    1
    54    24    25    1
    55    24    54    1
    56    24    55    1
    57    25    26    1
    58    25    56    1
    59    25    57    1
@<TRIPOS>SUBSTRUCTURE
     1 ZINC000555499135        1 TEMP              0 ****  ****    0 ROOT


##########                                Name:    ZINC000543020509
##########                DOCK_Rotatable_Bonds:                   5
##########                         Heavy_Atoms:                  26
##########                    Molecular_Weight:              366.81
##########                DOCK_Rotatable_Bonds:                   5
##########                       Formal_Charge:               -0.02
##########                     HBond_Acceptors:                   8
##########                        HBond_Donors:                   1
##########                         Heavy_Atoms:                  26
##########                          Grid_Score:          -33.758305
##########                     Grid_vdw_energy:          -32.949932
##########                      Grid_es_energy:           -0.808373
##########           Internal_energy_repulsive:           10.883862

@<TRIPOS>MOLECULE
ZINC000543020509
 41 43 1 0 0
SMALL
USER_CHARGES


@<TRIPOS>ATOM
      1 C1         -4.8102    4.2561   51.1457 C.3     1  ZINC000543020509    0.0800
      2 N2         -5.8066    3.4159   51.8147 N.pl3   1  ZINC000543020509   -0.6200
      3 C3         -6.6357    3.9746   52.8855 C.3     1  ZINC000543020509    0.0900
      4 C4         -5.9656    2.0868   51.4329 C.ar    1  ZINC000543020509    0.2500
      5 C5         -5.0539    1.4767   50.5731 C.ar    1  ZINC000543020509   -0.2200
      6 C6         -5.2429    0.1545   50.2152 C.ar    1  ZINC000543020509    0.1400
      7 N7         -6.2678   -0.5320   50.6741 N.ar    1  ZINC000543020509   -0.5000
      8 C8         -7.1616    0.0081   51.4957 C.ar    1  ZINC000543020509    0.1100
      9 C9         -8.2971   -0.8085   51.9839 C.2     1  ZINC000543020509    0.5900
     10 O10        -8.2978   -2.0118   51.8134 O.2     1  ZINC000543020509   -0.5000
     11 N11        -9.3294   -0.2171   52.6171 N.am    1  ZINC000543020509   -0.6200
     12 C12       -10.4013   -0.9888   53.0799 C.2     1  ZINC000543020509    0.3200
     13 N13       -10.8693   -0.9992   54.3060 N.2     1  ZINC000543020509   -0.3100
     14 N14       -11.9407   -1.9002   54.3582 N.pl3   1  ZINC000543020509   -0.3300
     15 C15       -12.7094   -2.1988   55.4859 C.ar    1  ZINC000543020509    0.2200
     16 C16       -12.5489   -3.4132   56.1365 C.ar    1  ZINC000543020509   -0.1300
     17 C17       -13.3094   -3.7073   57.2516 C.ar    1  ZINC000543020509   -0.0500
     18 C18       -14.2366   -2.7945   57.7284 C.ar    1  ZINC000543020509   -0.0600
     19 Cl19      -15.1851   -3.1785   59.1308 Cl      1  ZINC000543020509   -0.0500
     20 C20       -14.4089   -1.5813   57.0935 C.ar    1  ZINC000543020509   -0.0400
     21 C21       -13.6428   -1.2693   55.9687 C.ar    1  ZINC000543020509   -0.0200
     22 C22       -13.8165   -0.0123   55.3051 C.1     1  ZINC000543020509    0.2500
     23 N23       -13.9542    0.9850   54.7788 N.1     1  ZINC000543020509   -0.3800
     24 C24       -12.1006   -2.4319   53.1181 C.2     1  ZINC000543020509    0.0700
     25 C25       -11.1663   -1.8818   52.3104 C.2     1  ZINC000543020509   -0.2400
     26 C26        -7.0380    1.3306   51.9058 C.ar    1  ZINC000543020509   -0.1800
     27 H27        -3.8589    4.1811   51.6726 H       1  ZINC000543020509    0.0600
     28 H28        -4.6829    3.9194   50.1167 H       1  ZINC000543020509    0.0700
     29 H29        -5.1472    5.2927   51.1498 H       1  ZINC000543020509    0.0700
     30 H30        -6.3700    5.0201   53.0429 H       1  ZINC000543020509    0.0800
     31 H31        -7.6867    3.9052   52.6051 H       1  ZINC000543020509    0.0600
     32 H32        -6.4672    3.4146   53.8053 H       1  ZINC000543020509    0.0600
     33 H33        -4.2095    2.0305   50.1902 H       1  ZINC000543020509    0.1400
     34 H34        -4.5390   -0.3219   49.5490 H       1  ZINC000543020509    0.1700
     35 H35        -9.3293    0.7435   52.7522 H       1  ZINC000543020509    0.4300
     36 H36       -11.8286   -4.1299   55.7707 H       1  ZINC000543020509    0.1500
     37 H37       -13.1809   -4.6544   57.7543 H       1  ZINC000543020509    0.1500
     38 H38       -15.1326   -0.8727   57.4685 H       1  ZINC000543020509    0.1500
     39 H39       -12.8435   -3.1604   52.8285 H       1  ZINC000543020509    0.1900
     40 H40       -11.0282   -2.0958   51.2610 H       1  ZINC000543020509    0.1800
     41 H41        -7.7651    1.7679   52.5740 H       1  ZINC000543020509    0.1500
@<TRIPOS>BOND
     1     1     2    1
     2     1    27    1
     3     1    28    1
     4     1    29    1
     5     2     3    1
     6     2     4    1
     7     3    30    1
     8     3    31    1
     9     3    32    1
    10     4    26   ar
    11     4     5   ar
    12     5     6   ar
    13     5    33    1
    14     6     7   ar
    15     6    34    1
    16     7     8   ar
    17     8     9    1
    18     8    26   ar
    19     9    10    2
    20     9    11   am
    21    11    12    1
    22    11    35    1
    23    12    25    1
    24    12    13    2
    25    13    14    1
    26    14    15    1
    27    14    24    1
    28    15    21   ar
    29    15    16   ar
    30    16    17   ar
    31    16    36    1
    32    17    18   ar
    33    17    37    1
    34    18    19    1
    35    18    20   ar
    36    20    21   ar
    37    20    38    1
    38    21    22    1
    39    22    23    3
    40    24    25    2
    41    24    39    1
    42    25    40    1
    43    26    41    1
@<TRIPOS>SUBSTRUCTURE
     1 ZINC000543020509        1 TEMP              0 ****  ****    0 ROOT


##########                                Name:    ZINC000279593480
##########                DOCK_Rotatable_Bonds:                   9
##########                         Heavy_Atoms:                  23
##########                    Molecular_Weight:              340.85
##########                DOCK_Rotatable_Bonds:                   9
##########                       Formal_Charge:          -0.0500002
##########                     HBond_Acceptors:                   6
##########                        HBond_Donors:                   3
##########                         Heavy_Atoms:                  23
##########                          Grid_Score:          -33.737400
##########                     Grid_vdw_energy:          -32.189556
##########                      Grid_es_energy:           -1.547843
##########           Internal_energy_repulsive:           16.509787

@<TRIPOS>MOLECULE
ZINC000279593480
 48 49 1 0 0
SMALL
USER_CHARGES


@<TRIPOS>ATOM
      1 C1         -0.1221    4.4550   55.0718 C.3     1  ZINC000279593480   -0.1400
      2 C2         -0.6952    3.6441   56.2358 C.3     1  ZINC000279593480   -0.1400
      3 C3         -2.1796    3.3710   55.9850 C.3     1  ZINC000279593480    0.1700
      4 H4         -2.7557    4.2717   56.1967 H       1  ZINC000279593480    0.0900
      5 C5         -2.6509    2.2376   56.8983 C.3     1  ZINC000279593480   -0.0900
      6 C6         -2.5581    2.6796   58.3362 C.ar    1  ZINC000279593480   -0.0800
      7 C7         -1.9239    1.8769   59.2661 C.ar    1  ZINC000279593480   -0.1000
      8 C8         -1.8384    2.2817   60.5849 C.ar    1  ZINC000279593480   -0.1100
      9 C9         -2.3876    3.4904   60.9742 C.ar    1  ZINC000279593480   -0.0400
     10 Cl10       -2.2801    3.9997   62.6304 Cl      1  ZINC000279593480   -0.0700
     11 C11        -3.0221    4.2932   60.0431 C.ar    1  ZINC000279593480   -0.1100
     12 C12        -3.1021    3.8900   58.7235 C.ar    1  ZINC000279593480   -0.1000
     13 N13        -2.3752    2.9838   54.5857 N.am    1  ZINC000279593480   -0.7400
     14 C14        -3.5186    3.3083   53.9502 C.2     1  ZINC000279593480    0.7100
     15 O15        -4.3871    3.9238   54.5380 O.2     1  ZINC000279593480   -0.5800
     16 N16        -3.6993    2.9508   52.6634 N.am    1  ZINC000279593480   -0.7500
     17 C17        -4.9414    3.3051   51.9722 C.3     1  ZINC000279593480    0.1200
     18 C18        -5.0355    2.5241   50.6598 C.3     1  ZINC000279593480    0.0900
     19 O19        -6.2308    2.8700   49.9574 O.3     1  ZINC000279593480   -0.5400
     20 C20        -3.7920    2.7892   49.7819 C.3     1  ZINC000279593480   -0.1900
     21 C21        -3.1394    1.3978   49.6254 C.3     1  ZINC000279593480    0.0500
     22 O22        -4.2166    0.4591   49.8366 O.3     1  ZINC000279593480   -0.3600
     23 C23        -4.9871    1.0039   50.9301 C.3     1  ZINC000279593480    0.0900
     24 H24        -4.4921    0.8029   51.8802 H       1  ZINC000279593480    0.0800
     25 C25        -6.3995    0.4156   50.9315 C.3     1  ZINC000279593480   -0.1400
     26 H26        -0.6569    5.4012   54.9900 H       1  ZINC000279593480    0.0600
     27 H27         0.9354    4.6496   55.2505 H       1  ZINC000279593480    0.0400
     28 H28        -0.2364    3.8918   54.1456 H       1  ZINC000279593480    0.0600
     29 H29        -0.1604    2.6979   56.3176 H       1  ZINC000279593480    0.0600
     30 H30        -0.5809    4.2074   57.1620 H       1  ZINC000279593480    0.0700
     31 H31        -3.6848    1.9862   56.6616 H       1  ZINC000279593480    0.0800
     32 H32        -2.0201    1.3620   56.7460 H       1  ZINC000279593480    0.0900
     33 H33        -1.4955    0.9333   58.9620 H       1  ZINC000279593480    0.1300
     34 H34        -1.3432    1.6544   61.3114 H       1  ZINC000279593480    0.1300
     35 H35        -3.4513    5.2367   60.3465 H       1  ZINC000279593480    0.1300
     36 H36        -3.5970    4.5167   57.9964 H       1  ZINC000279593480    0.1300
     37 H37        -1.6819    2.4938   54.1165 H       1  ZINC000279593480    0.3900
     38 H38        -3.0070    2.4588   52.1949 H       1  ZINC000279593480    0.3900
     39 H39        -5.7932    3.0561   52.6050 H       1  ZINC000279593480    0.0800
     40 H40        -4.9469    4.3743   51.7598 H       1  ZINC000279593480    0.0800
     41 H41        -6.3491    3.8208   49.8267 H       1  ZINC000279593480    0.3700
     42 H42        -4.0879    3.1837   48.8099 H       1  ZINC000279593480    0.0900
     43 H43        -3.1103    3.4766   50.2827 H       1  ZINC000279593480    0.0900
     44 H44        -2.7269    1.2826   48.6231 H       1  ZINC000279593480    0.1000
     45 H45        -2.3611    1.2572   50.3755 H       1  ZINC000279593480    0.0600
     46 H46        -6.3431   -0.6643   51.0682 H       1  ZINC000279593480    0.0600
     47 H47        -6.9754    0.8554   51.7457 H       1  ZINC000279593480    0.0700
     48 H48        -6.8861    0.6366   49.9815 H       1  ZINC000279593480    0.0700
@<TRIPOS>BOND
     1     1     2    1
     2     1    26    1
     3     1    27    1
     4     1    28    1
     5     2     3    1
     6     2    29    1
     7     2    30    1
     8     3     4    1
     9     3     5    1
    10     3    13    1
    11     5     6    1
    12     5    31    1
    13     5    32    1
    14     6    12   ar
    15     6     7   ar
    16     7     8   ar
    17     7    33    1
    18     8     9   ar
    19     8    34    1
    20     9    10    1
    21     9    11   ar
    22    11    12   ar
    23    11    35    1
    24    12    36    1
    25    13    14   am
    26    13    37    1
    27    14    15    2
    28    14    16   am
    29    16    17    1
    30    16    38    1
    31    17    18    1
    32    17    39    1
    33    17    40    1
    34    18    23    1
    35    18    19    1
    36    18    20    1
    37    19    41    1
    38    20    21    1
    39    20    42    1
    40    20    43    1
    41    21    22    1
    42    21    44    1
    43    21    45    1
    44    22    23    1
    45    23    24    1
    46    23    25    1
    47    25    46    1
    48    25    47    1
    49    25    48    1
@<TRIPOS>SUBSTRUCTURE
     1 ZINC000279593480        1 TEMP              0 ****  ****    0 ROOT


##########                                Name:    ZINC000008416770
##########                DOCK_Rotatable_Bonds:                  13
##########                         Heavy_Atoms:                  30
##########                    Molecular_Weight:             412.442
##########                DOCK_Rotatable_Bonds:                  13
##########                       Formal_Charge:          -0.0199998
##########                     HBond_Acceptors:                   8
##########                        HBond_Donors:                   2
##########                         Heavy_Atoms:                  30
##########                          Grid_Score:          -33.723690
##########                     Grid_vdw_energy:          -29.970423
##########                      Grid_es_energy:           -3.753268
##########           Internal_energy_repulsive:          186.177734

@<TRIPOS>MOLECULE
ZINC000008416770
 54 55 1 0 0
SMALL
USER_CHARGES


@<TRIPOS>ATOM
      1 C1          4.4465    6.3644   38.9406 C.3     1  ZINC000008416770   -0.1500
      2 C2          5.0221    4.9474   38.9794 C.3     1  ZINC000008416770    0.0600
      3 O3          4.3840    4.1949   40.0447 O.3     1  ZINC000008416770   -0.3500
      4 C4          4.5179    4.6740   41.2971 C.2     1  ZINC000008416770    0.5100
      5 O5          5.1500    5.6929   41.4935 O.2     1  ZINC000008416770   -0.5100
      6 C6          3.8972    3.9616   42.4293 C.ar    1  ZINC000008416770   -0.1500
      7 C7          4.0301    4.4604   43.7286 C.ar    1  ZINC000008416770   -0.0400
      8 C8          3.4490    3.7930   44.7830 C.ar    1  ZINC000008416770   -0.1400
      9 C9          2.7300    2.6234   44.5569 C.ar    1  ZINC000008416770    0.1800
     10 N10         2.1428    1.9502   45.6271 N.am    1  ZINC000008416770   -0.6700
     11 C11         2.2715    2.4326   46.8790 C.2     1  ZINC000008416770    0.5200
     12 O12         2.8980    3.4525   47.0744 O.2     1  ZINC000008416770   -0.5100
     13 C13         1.6367    1.7049   48.0359 C.3     1  ZINC000008416770   -0.1300
     14 C14         1.2369    2.7132   49.1151 C.3     1  ZINC000008416770   -0.1000
     15 C15         0.4457    2.0121   50.1891 C.2     1  ZINC000008416770    0.4700
     16 O16         0.7998    2.0805   51.3423 O.2     1  ZINC000008416770   -0.5100
     17 O17        -0.6524    1.3116   49.8647 O.3     1  ZINC000008416770   -0.3300
     18 C18        -1.7879    2.0622   49.3593 C.3     1  ZINC000008416770    0.0500
     19 C19        -3.0213    1.6965   50.1441 C.2     1  ZINC000008416770    0.5100
     20 O20        -2.9360    1.4534   51.3293 O.2     1  ZINC000008416770   -0.4900
     21 N21        -4.2191    1.6398   49.5290 N.am    1  ZINC000008416770   -0.6700
     22 C22        -5.3644    1.3003   50.2577 C.ar    1  ZINC000008416770    0.1400
     23 C23        -5.7931   -0.0198   50.3050 C.ar    1  ZINC000008416770   -0.1400
     24 C24        -6.9240   -0.3517   51.0252 C.ar    1  ZINC000008416770   -0.1000
     25 C25        -7.6293    0.6289   51.6983 C.ar    1  ZINC000008416770   -0.1000
     26 C26        -8.8630    0.2632   52.4828 C.3     1  ZINC000008416770   -0.1200
     27 C27        -7.2047    1.9441   51.6536 C.ar    1  ZINC000008416770   -0.1000
     28 C28        -6.0715    2.2816   50.9399 C.ar    1  ZINC000008416770   -0.1200
     29 C29         2.5953    2.1244   43.2649 C.ar    1  ZINC000008416770   -0.1600
     30 C30         3.1695    2.7890   42.2052 C.ar    1  ZINC000008416770   -0.0300
     31 H31         3.3730    6.3158   38.7584 H       1  ZINC000008416770    0.0700
     32 H32         4.6312    6.8578   39.8949 H       1  ZINC000008416770    0.0700
     33 H33         4.9256    6.9294   38.1410 H       1  ZINC000008416770    0.0800
     34 H34         4.8376    4.4540   38.0252 H       1  ZINC000008416770    0.0700
     35 H35         6.0957    4.9960   39.1617 H       1  ZINC000008416770    0.0700
     36 H36         4.5883    5.3679   43.9049 H       1  ZINC000008416770    0.1400
     37 H37         3.5515    4.1776   45.7869 H       1  ZINC000008416770    0.1400
     38 H38         1.6416    1.1345   45.4709 H       1  ZINC000008416770    0.4200
     39 H39         0.7505    1.1736   47.6888 H       1  ZINC000008416770    0.1100
     40 H40         2.3487    0.9916   48.4511 H       1  ZINC000008416770    0.1100
     41 H41         2.1336    3.1520   49.5524 H       1  ZINC000008416770    0.1200
     42 H42         0.6276    3.4995   48.6696 H       1  ZINC000008416770    0.1200
     43 H43        -1.5935    3.1296   49.4642 H       1  ZINC000008416770    0.1100
     44 H44        -1.9424    1.8228   48.3072 H       1  ZINC000008416770    0.1100
     45 H45        -4.2874    1.8344   48.5812 H       1  ZINC000008416770    0.4100
     46 H46        -5.2431   -0.7860   49.7789 H       1  ZINC000008416770    0.1300
     47 H47        -7.2579   -1.3781   51.0624 H       1  ZINC000008416770    0.1300
     48 H48        -8.5828    0.0174   53.5070 H       1  ZINC000008416770    0.0700
     49 H49        -9.5538    1.1065   52.4875 H       1  ZINC000008416770    0.0700
     50 H50        -9.3450   -0.5986   52.0211 H       1  ZINC000008416770    0.0700
     51 H51        -7.7579    2.7077   52.1804 H       1  ZINC000008416770    0.1300
     52 H52        -5.7404    3.3092   50.9054 H       1  ZINC000008416770    0.1300
     53 H53         2.0362    1.2165   43.0930 H       1  ZINC000008416770    0.1400
     54 H54         3.0647    2.4011   41.2028 H       1  ZINC000008416770    0.1400
@<TRIPOS>BOND
     1     1     2    1
     2     1    31    1
     3     1    32    1
     4     1    33    1
     5     2     3    1
     6     2    34    1
     7     2    35    1
     8     3     4    1
     9     4     5    2
    10     4     6    1
    11     6    30   ar
    12     6     7   ar
    13     7     8   ar
    14     7    36    1
    15     8     9   ar
    16     8    37    1
    17     9    10    1
    18     9    29   ar
    19    10    11   am
    20    10    38    1
    21    11    12    2
    22    11    13    1
    23    13    14    1
    24    13    39    1
    25    13    40    1
    26    14    15    1
    27    14    41    1
    28    14    42    1
    29    15    16    2
    30    15    17    1
    31    17    18    1
    32    18    19    1
    33    18    43    1
    34    18    44    1
    35    19    20    2
    36    19    21   am
    37    21    22    1
    38    21    45    1
    39    22    28   ar
    40    22    23   ar
    41    23    24   ar
    42    23    46    1
    43    24    25   ar
    44    24    47    1
    45    25    26    1
    46    25    27   ar
    47    26    48    1
    48    26    49    1
    49    26    50    1
    50    27    28   ar
    51    27    51    1
    52    28    52    1
    53    29    30   ar
    54    29    53    1
    55    30    54    1
@<TRIPOS>SUBSTRUCTURE
     1 ZINC000008416770        1 TEMP              0 ****  ****    0 ROOT


##########                                Name:    ZINC000588570917
##########                DOCK_Rotatable_Bonds:                   7
##########                         Heavy_Atoms:                  25
##########                    Molecular_Weight:             366.481
##########                DOCK_Rotatable_Bonds:                   7
##########                       Formal_Charge:          -0.0100006
##########                     HBond_Acceptors:                   7
##########                        HBond_Donors:                   1
##########                         Heavy_Atoms:                  25
##########                          Grid_Score:          -33.697411
##########                     Grid_vdw_energy:          -32.435886
##########                      Grid_es_energy:           -1.261525
##########           Internal_energy_repulsive:           17.649254

@<TRIPOS>MOLECULE
ZINC000588570917
 51 52 1 0 0
SMALL
USER_CHARGES


@<TRIPOS>ATOM
      1 C1         -3.4642    3.7108   52.3462 C.3     1  ZINC000588570917   -0.1300
      2 C2         -4.7004    2.8494   52.3731 C.2     1  ZINC000588570917   -0.0500
      3 C3         -5.1107    2.2400   51.2642 C.2     1  ZINC000588570917   -0.2000
      4 C4         -4.3405    2.4125   49.9805 C.3     1  ZINC000588570917   -0.0900
      5 C5         -3.3175    1.2831   49.8439 C.3     1  ZINC000588570917   -0.1500
      6 C6         -6.3162    1.3979   51.2910 C.2     1  ZINC000588570917    0.5600
      7 O7         -6.5249    0.6063   50.3916 O.2     1  ZINC000588570917   -0.5100
      8 N8         -7.1894    1.5036   52.3120 N.am    1  ZINC000588570917   -0.6800
      9 C9         -8.3356    0.7030   52.3375 C.ar    1  ZINC000588570917    0.2100
     10 C10        -8.2189   -0.6761   52.4535 C.ar    1  ZINC000588570917   -0.1700
     11 C11        -9.3530   -1.4639   52.4789 C.ar    1  ZINC000588570917    0.0000
     12 C12       -10.6037   -0.8810   52.3891 C.ar    1  ZINC000588570917   -0.7000
     13 S13       -12.0481   -1.8897   52.4219 S.o2    1  ZINC000588570917    2.6900
     14 O14       -13.0417   -1.1919   51.6835 O.2     1  ZINC000588570917   -0.9500
     15 O15       -11.6244   -3.2077   52.1020 O.2     1  ZINC000588570917   -0.9500
     16 N16       -12.5777   -1.9366   53.9903 N.am    1  ZINC000588570917   -1.0000
     17 C17       -12.6734   -3.2110   54.7196 C.3     1  ZINC000588570917    0.0900
     18 C18       -11.9571   -3.0526   56.0657 C.3     1  ZINC000588570917    0.0700
     19 H19       -10.8868   -2.9337   55.8969 H       1  ZINC000588570917    0.0700
     20 C20       -12.2039   -4.2941   56.9251 C.3     1  ZINC000588570917   -0.1500
     21 O21       -12.4660   -1.8974   56.7366 O.3     1  ZINC000588570917   -0.3700
     22 C22       -12.2355   -0.6687   56.0429 C.3     1  ZINC000588570917    0.0800
     23 H23       -12.6125    0.1622   56.6392 H       1  ZINC000588570917    0.1200
     24 C24       -10.7346   -0.4889   55.8070 C.3     1  ZINC000588570917   -0.1900
     25 C25       -12.9607   -0.7045   54.6976 C.3     1  ZINC000588570917    0.0900
     26 C26       -10.7235    0.4919   52.2740 C.ar    1  ZINC000588570917    0.0000
     27 C27        -9.5936    1.2857   52.2529 C.ar    1  ZINC000588570917   -0.1400
     28 H28        -3.2869    4.1230   53.3395 H       1  ZINC000588570917    0.0600
     29 H29        -2.6077    3.1079   52.0448 H       1  ZINC000588570917    0.0800
     30 H30        -3.6039    4.5248   51.6347 H       1  ZINC000588570917    0.0800
     31 H31        -5.2533    2.7269   53.2928 H       1  ZINC000588570917    0.1300
     32 H32        -5.0295    2.3826   49.1365 H       1  ZINC000588570917    0.0700
     33 H33        -3.8230    3.3718   49.9934 H       1  ZINC000588570917    0.0800
     34 H34        -3.8349    0.3238   49.8310 H       1  ZINC000588570917    0.0500
     35 H35        -2.7603    1.4077   48.9154 H       1  ZINC000588570917    0.0600
     36 H36        -2.6284    1.3128   50.6880 H       1  ZINC000588570917    0.0600
     37 H37        -7.0229    2.1350   53.0293 H       1  ZINC000588570917    0.4100
     38 H38        -7.2423   -1.1321   52.5233 H       1  ZINC000588570917    0.1400
     39 H39        -9.2629   -2.5364   52.5687 H       1  ZINC000588570917    0.1400
     40 H40       -13.7211   -3.4597   54.8884 H       1  ZINC000588570917    0.0900
     41 H41       -12.1964   -4.0020   54.1409 H       1  ZINC000588570917    0.1000
     42 H42       -11.8189   -5.1746   56.4106 H       1  ZINC000588570917    0.0700
     43 H43       -11.6943   -4.1809   57.8820 H       1  ZINC000588570917    0.0700
     44 H44       -13.2742   -4.4116   57.0951 H       1  ZINC000588570917    0.0700
     45 H45       -10.3588   -1.3193   55.2091 H       1  ZINC000588570917    0.0600
     46 H46       -10.5597    0.4480   55.2780 H       1  ZINC000588570917    0.0700
     47 H47       -10.2161   -0.4674   56.7654 H       1  ZINC000588570917    0.0700
     48 H48       -12.6766    0.1647   54.1043 H       1  ZINC000588570917    0.1000
     49 H49       -14.0384   -0.7014   54.8612 H       1  ZINC000588570917    0.0900
     50 H50       -11.7018    0.9440   52.2040 H       1  ZINC000588570917    0.1400
     51 H51        -9.6879    2.3579   52.1634 H       1  ZINC000588570917    0.1500
@<TRIPOS>BOND
     1     1     2    1
     2     1    28    1
     3     1    29    1
     4     1    30    1
     5     2     3    2
     6     2    31    1
     7     3     4    1
     8     3     6    1
     9     4     5    1
    10     4    32    1
    11     4    33    1
    12     5    34    1
    13     5    35    1
    14     5    36    1
    15     6     7    2
    16     6     8   am
    17     8     9    1
    18     8    37    1
    19     9    27   ar
    20     9    10   ar
    21    10    11   ar
    22    10    38    1
    23    11    12   ar
    24    11    39    1
    25    12    13    1
    26    12    26   ar
    27    13    14    2
    28    13    15    2
    29    13    16   am
    30    16    25    1
    31    16    17    1
    32    17    18    1
    33    17    40    1
    34    17    41    1
    35    18    19    1
    36    18    20    1
    37    18    21    1
    38    20    42    1
    39    20    43    1
    40    20    44    1
    41    21    22    1
    42    22    23    1
    43    22    24    1
    44    22    25    1
    45    24    45    1
    46    24    46    1
    47    24    47    1
    48    25    48    1
    49    25    49    1
    50    26    27   ar
    51    26    50    1
    52    27    51    1
@<TRIPOS>SUBSTRUCTURE
     1 ZINC000588570917        1 TEMP              0 ****  ****    0 ROOT


##########                                Name:    ZINC000469435497
##########                DOCK_Rotatable_Bonds:                   6
##########                         Heavy_Atoms:                  27
##########                    Molecular_Weight:             364.444
##########                DOCK_Rotatable_Bonds:                   6
##########                       Formal_Charge:           0.0300001
##########                     HBond_Acceptors:                   5
##########                        HBond_Donors:                   2
##########                         Heavy_Atoms:                  27
##########                          Grid_Score:          -33.696976
##########                     Grid_vdw_energy:          -30.473574
##########                      Grid_es_energy:           -3.223403
##########           Internal_energy_repulsive:            4.215907

@<TRIPOS>MOLECULE
ZINC000469435497
 51 54 1 0 0
SMALL
USER_CHARGES


@<TRIPOS>ATOM
      1 C1          1.1541    1.0190   50.2271 C.3     1  ZINC000469435497   -0.1600
      2 C2          0.4714    2.2684   49.6670 C.3     1  ZINC000469435497    0.1000
      3 C3          1.0774    2.6553   48.3165 C.3     1  ZINC000469435497   -0.1400
      4 C4         -1.0553    2.0506   49.5449 C.3     1  ZINC000469435497   -0.1000
      5 C5         -1.5567    2.5951   50.8685 C.ar    1  ZINC000469435497   -0.1500
      6 C6         -2.7600    2.4638   51.5241 C.ar    1  ZINC000469435497   -0.0700
      7 C7         -2.9488    3.0780   52.7562 C.ar    1  ZINC000469435497    0.1100
      8 N8         -4.1711    2.9477   53.4286 N.am    1  ZINC000469435497   -0.6600
      9 C9         -5.1243    3.8892   53.2823 C.2     1  ZINC000469435497    0.5100
     10 O10        -4.9240    4.8494   52.5687 O.2     1  ZINC000469435497   -0.5200
     11 C11        -6.4391    3.7492   54.0054 C.3     1  ZINC000469435497    0.1000
     12 N12        -7.0407    2.4541   53.6786 N.am    1  ZINC000469435497   -0.7200
     13 C13        -8.3677    2.3630   53.4617 C.2     1  ZINC000469435497    0.5700
     14 O14        -9.0656    3.3552   53.5386 O.2     1  ZINC000469435497   -0.5300
     15 C15        -8.9746    1.0562   53.1300 C.ar    1  ZINC000469435497   -0.1400
     16 C16        -8.1894    0.0329   52.5975 C.ar    1  ZINC000469435497   -0.0800
     17 C17        -8.7638   -1.1823   52.2913 C.ar    1  ZINC000469435497   -0.1100
     18 C18       -10.1164   -1.3938   52.5091 C.ar    1  ZINC000469435497   -0.0700
     19 C19       -10.9671   -2.6210   52.2577 C.3     1  ZINC000469435497   -0.0900
     20 C20       -12.2482   -2.4021   53.0900 C.3     1  ZINC000469435497   -0.1200
     21 C21       -12.3294   -0.8633   53.1756 C.3     1  ZINC000469435497   -0.0800
     22 C22       -10.9005   -0.3827   53.0370 C.ar    1  ZINC000469435497   -0.1100
     23 C23       -10.3339    0.8374   53.3531 C.ar    1  ZINC000469435497   -0.0400
     24 C24        -1.9192    3.8213   53.3172 C.ar    1  ZINC000469435497   -0.1000
     25 C25        -0.7166    3.9538   52.6554 C.ar    1  ZINC000469435497   -0.1200
     26 C26        -0.5233    3.3428   51.4190 C.ar    1  ZINC000469435497    0.1000
     27 O27         0.5638    3.3599   50.5982 O.3     1  ZINC000469435497   -0.3000
     28 H28         0.6873    0.7428   51.1727 H       1  ZINC000469435497    0.0600
     29 H29         1.0494    0.1986   49.5171 H       1  ZINC000469435497    0.0800
     30 H30         2.2118    1.2252   50.3907 H       1  ZINC000469435497    0.0700
     31 H31         0.9345    1.8400   47.6072 H       1  ZINC000469435497    0.0800
     32 H32         0.5863    3.5533   47.9417 H       1  ZINC000469435497    0.0700
     33 H33         2.1433    2.8481   48.4385 H       1  ZINC000469435497    0.0700
     34 H34        -1.4642    2.6192   48.7097 H       1  ZINC000469435497    0.0900
     35 H35        -1.2908    0.9910   49.4453 H       1  ZINC000469435497    0.0900
     36 H36        -3.5565    1.8844   51.0812 H       1  ZINC000469435497    0.1400
     37 H37        -4.3314    2.1799   53.9992 H       1  ZINC000469435497    0.4200
     38 H38        -6.2707    3.8106   55.0805 H       1  ZINC000469435497    0.1100
     39 H39        -7.1108    4.5501   53.6965 H       1  ZINC000469435497    0.1100
     40 H40        -6.4839    1.6620   53.6184 H       1  ZINC000469435497    0.4100
     41 H41        -7.1352    0.1924   52.4255 H       1  ZINC000469435497    0.1300
     42 H42        -8.1563   -1.9743   51.8788 H       1  ZINC000469435497    0.1300
     43 H43       -11.2129   -2.7004   51.1988 H       1  ZINC000469435497    0.0900
     44 H44       -10.4463   -3.5176   52.5940 H       1  ZINC000469435497    0.0800
     45 H45       -13.1189   -2.8080   52.5748 H       1  ZINC000469435497    0.0800
     46 H46       -12.1449   -2.8405   54.0826 H       1  ZINC000469435497    0.0700
     47 H47       -12.9409   -0.4711   52.3630 H       1  ZINC000469435497    0.0800
     48 H48       -12.7389   -0.5593   54.1389 H       1  ZINC000469435497    0.0800
     49 H49       -10.9453    1.6240   53.7702 H       1  ZINC000469435497    0.1400
     50 H50        -2.0607    4.2981   54.2759 H       1  ZINC000469435497    0.1400
     51 H51         0.0795    4.5340   53.0982 H       1  ZINC000469435497    0.1300
@<TRIPOS>BOND
     1     1     2    1
     2     1    28    1
     3     1    29    1
     4     1    30    1
     5     2    27    1
     6     2     3    1
     7     2     4    1
     8     3    31    1
     9     3    32    1
    10     3    33    1
    11     4     5    1
    12     4    34    1
    13     4    35    1
    14     5    26   ar
    15     5     6   ar
    16     6     7   ar
    17     6    36    1
    18     7     8    1
    19     7    24   ar
    20     8     9   am
    21     8    37    1
    22     9    10    2
    23     9    11    1
    24    11    12    1
    25    11    38    1
    26    11    39    1
    27    12    13   am
    28    12    40    1
    29    13    14    2
    30    13    15    1
    31    15    23   ar
    32    15    16   ar
    33    16    17   ar
    34    16    41    1
    35    17    18   ar
    36    17    42    1
    37    18    22   ar
    38    18    19    1
    39    19    20    1
    40    19    43    1
    41    19    44    1
    42    20    21    1
    43    20    45    1
    44    20    46    1
    45    21    22    1
    46    21    47    1
    47    21    48    1
    48    22    23   ar
    49    23    49    1
    50    24    25   ar
    51    24    50    1
    52    25    26   ar
    53    25    51    1
    54    26    27    1
@<TRIPOS>SUBSTRUCTURE
     1 ZINC000469435497        1 TEMP              0 ****  ****    0 ROOT


##########                                Name:    ZINC001282645012
##########                DOCK_Rotatable_Bonds:                   9
##########                         Heavy_Atoms:                  27
##########                    Molecular_Weight:             372.511
##########                DOCK_Rotatable_Bonds:                   9
##########                       Formal_Charge:          -0.0200004
##########                     HBond_Acceptors:                   6
##########                        HBond_Donors:                   1
##########                         Heavy_Atoms:                  27
##########                          Grid_Score:          -33.688442
##########                     Grid_vdw_energy:          -32.231499
##########                      Grid_es_energy:           -1.456942
##########           Internal_energy_repulsive:           37.578342

@<TRIPOS>MOLECULE
ZINC001282645012
 59 61 1 0 0
SMALL
USER_CHARGES


@<TRIPOS>ATOM
      1 C1         -6.4195   -0.3174   51.0796 C.2     1  ZINC001282645012   -0.1900
      2 C2         -7.4680    0.3875   51.4259 C.2     1  ZINC001282645012   -0.1300
      3 C3         -7.3662    1.8874   51.5317 C.3     1  ZINC001282645012   -0.0500
      4 C4         -6.3953    2.2546   52.6557 C.3     1  ZINC001282645012   -0.1500
      5 C5         -6.8533    2.4582   50.2080 C.3     1  ZINC001282645012   -0.1400
      6 C6         -8.7257    2.4632   51.8339 C.2     1  ZINC001282645012    0.5500
      7 O7         -9.1782    3.3471   51.1377 O.2     1  ZINC001282645012   -0.5300
      8 N8         -9.4385    1.9957   52.8779 N.am    1  ZINC001282645012   -0.6300
      9 C9        -10.7951    2.3841   53.3938 C.3     1  ZINC001282645012    0.1200
     10 H10       -11.3016    3.1797   52.8477 H       1  ZINC001282645012    0.1300
     11 C11       -10.4696    2.6944   54.8860 C.3     1  ZINC001282645012   -0.1300
     12 C12        -9.3293    1.7012   55.2199 C.3     1  ZINC001282645012   -0.1300
     13 C13        -9.1239    0.9215   53.8800 C.3     1  ZINC001282645012    0.1200
     14 H14        -8.1568    0.4323   53.7640 H       1  ZINC001282645012    0.1200
     15 C15       -10.3675   -0.0099   53.7587 C.3     1  ZINC001282645012    0.1300
     16 H16       -10.2324   -0.7275   52.9495 H       1  ZINC001282645012    0.1000
     17 N17       -10.6182   -0.7034   55.0246 N.am    1  ZINC001282645012   -0.7100
     18 C18       -11.0135   -1.9919   55.0204 C.2     1  ZINC001282645012    0.5100
     19 O19       -11.1630   -2.5769   53.9686 O.2     1  ZINC001282645012   -0.5100
     20 C20       -11.2697   -2.7058   56.3226 C.3     1  ZINC001282645012    0.1200
     21 H21       -10.3588   -3.2095   56.6461 H       1  ZINC001282645012    0.1300
     22 C22       -11.6962   -1.6911   57.3852 C.3     1  ZINC001282645012   -0.1100
     23 C23       -11.8951   -2.4065   58.7229 C.3     1  ZINC001282645012   -0.1000
     24 C24       -10.5676   -3.0165   59.1774 C.3     1  ZINC001282645012   -0.1500
     25 C25       -12.3804   -1.4030   59.7709 C.3     1  ZINC001282645012   -0.1500
     26 N26       -12.3345   -3.6946   56.1362 N.pl3   1  ZINC001282645012   -0.4500
     27 C27       -13.4387   -3.5585   55.3389 C.2     1  ZINC001282645012   -0.0600
     28 C28       -14.1499   -4.6956   55.4610 C.2     1  ZINC001282645012   -0.0200
     29 N29       -13.4978   -5.5038   56.3097 N.2     1  ZINC001282645012   -0.4900
     30 C30       -12.4069   -4.9128   56.7143 C.2     1  ZINC001282645012    0.1900
     31 C31       -11.5195    1.0041   53.3972 C.3     1  ZINC001282645012   -0.1400
     32 H32        -5.4822    0.1764   50.8698 H       1  ZINC001282645012    0.1000
     33 H33        -6.4912   -1.3926   51.0082 H       1  ZINC001282645012    0.1000
     34 H34        -8.4053   -0.1062   51.6359 H       1  ZINC001282645012    0.1100
     35 H35        -5.4120    1.8383   52.4371 H       1  ZINC001282645012    0.0700
     36 H36        -6.3216    3.3395   52.7321 H       1  ZINC001282645012    0.0700
     37 H37        -6.7606    1.8480   53.5987 H       1  ZINC001282645012    0.0600
     38 H38        -7.5450    2.1965   49.4072 H       1  ZINC001282645012    0.0600
     39 H39        -6.7796    3.5431   50.2844 H       1  ZINC001282645012    0.0700
     40 H40        -5.8701    2.0418   49.9893 H       1  ZINC001282645012    0.0700
     41 H41       -10.1277    3.7233   54.9985 H       1  ZINC001282645012    0.0800
     42 H42       -11.3390    2.5064   55.5158 H       1  ZINC001282645012    0.0800
     43 H43        -8.4221    2.2377   55.4979 H       1  ZINC001282645012    0.0700
     44 H44        -9.6334    1.0209   56.0152 H       1  ZINC001282645012    0.0800
     45 H45       -10.4998   -0.2352   55.8658 H       1  ZINC001282645012    0.4000
     46 H46       -10.9234   -0.9298   57.4916 H       1  ZINC001282645012    0.0900
     47 H47       -12.6314   -1.2197   57.0828 H       1  ZINC001282645012    0.0800
     48 H48       -12.6367   -3.1967   58.6057 H       1  ZINC001282645012    0.0700
     49 H49        -9.8258   -2.2264   59.2946 H       1  ZINC001282645012    0.0600
     50 H50       -10.7092   -3.5263   60.1303 H       1  ZINC001282645012    0.0600
     51 H51       -10.2218   -3.7315   58.4308 H       1  ZINC001282645012    0.0500
     52 H52       -13.3661   -1.0321   59.4897 H       1  ZINC001282645012    0.0600
     53 H53       -12.4401   -1.8927   60.7428 H       1  ZINC001282645012    0.0600
     54 H54       -11.6808   -0.5690   59.8267 H       1  ZINC001282645012    0.0600
     55 H55       -13.6912   -2.7035   54.7292 H       1  ZINC001282645012    0.1700
     56 H56       -15.0821   -4.9177   54.9629 H       1  ZINC001282645012    0.1700
     57 H57       -11.6849   -5.3268   57.4026 H       1  ZINC001282645012    0.2000
     58 H58       -12.2907    0.9996   54.1675 H       1  ZINC001282645012    0.0900
     59 H59       -11.9471    0.7680   52.4229 H       1  ZINC001282645012    0.0900
@<TRIPOS>BOND
     1     1     2    2
     2     1    32    1
     3     1    33    1
     4     2     3    1
     5     2    34    1
     6     3     4    1
     7     3     5    1
     8     3     6    1
     9     4    35    1
    10     4    36    1
    11     4    37    1
    12     5    38    1
    13     5    39    1
    14     5    40    1
    15     6     7    2
    16     6     8   am
    17     8    13    1
    18     8     9    1
    19     9    10    1
    20     9    31    1
    21     9    11    1
    22    11    12    1
    23    11    41    1
    24    11    42    1
    25    12    13    1
    26    12    43    1
    27    12    44    1
    28    13    14    1
    29    13    15    1
    30    15    16    1
    31    15    17    1
    32    15    31    1
    33    17    18   am
    34    17    45    1
    35    18    19    2
    36    18    20    1
    37    20    21    1
    38    20    22    1
    39    20    26    1
    40    22    23    1
    41    22    46    1
    42    22    47    1
    43    23    24    1
    44    23    25    1
    45    23    48    1
    46    24    49    1
    47    24    50    1
    48    24    51    1
    49    25    52    1
    50    25    53    1
    51    25    54    1
    52    26    30    1
    53    26    27    1
    54    27    28    2
    55    27    55    1
    56    28    29    1
    57    28    56    1
    58    29    30    2
    59    30    57    1
    60    31    58    1
    61    31    59    1
@<TRIPOS>SUBSTRUCTURE
     1 ZINC001282645012        1 TEMP              0 ****  ****    0 ROOT


##########                                Name:    ZINC000840464592
##########                DOCK_Rotatable_Bonds:                  10
##########                         Heavy_Atoms:                  26
##########                    Molecular_Weight:             360.497
##########                DOCK_Rotatable_Bonds:                  10
##########                       Formal_Charge:          -0.0399996
##########                     HBond_Acceptors:                   5
##########                        HBond_Donors:                   1
##########                         Heavy_Atoms:                  26
##########                          Grid_Score:          -33.680321
##########                     Grid_vdw_energy:          -32.654797
##########                      Grid_es_energy:           -1.025526
##########           Internal_energy_repulsive:           82.789062

@<TRIPOS>MOLECULE
ZINC000840464592
 58 59 1 0 0
SMALL
USER_CHARGES


@<TRIPOS>ATOM
      1 C1          2.4579    0.9925   50.6208 C.3     1  ZINC000840464592   -0.1500
      2 C2          0.9883    1.4184   50.6197 C.3     1  ZINC000840464592   -0.1300
      3 C3          0.8697    2.8397   50.0660 C.3     1  ZINC000840464592   -0.1200
      4 C4         -0.6062    3.2360   49.9903 C.3     1  ZINC000840464592   -0.1200
      5 C5         -1.1816    3.3325   51.4047 C.3     1  ZINC000840464592   -0.1200
      6 C6         -2.5795    3.9517   51.3455 C.3     1  ZINC000840464592    0.0600
      7 O7         -3.5586    2.9126   51.2862 O.3     1  ZINC000840464592   -0.3600
      8 C8         -4.5169    3.0761   50.2388 C.3     1  ZINC000840464592    0.0800
      9 H9         -4.7019    4.1382   50.0780 H       1  ZINC000840464592    0.0800
     10 C10        -3.9762    2.4518   48.9508 C.3     1  ZINC000840464592   -0.1800
     11 C11        -5.8045    2.3949   50.6251 C.2     1  ZINC000840464592    0.5200
     12 O12        -6.1192    1.3490   50.0978 O.2     1  ZINC000840464592   -0.5000
     13 N13        -6.6063    2.9479   51.5565 N.am    1  ZINC000840464592   -0.6000
     14 C14        -6.2233    4.2076   52.1890 C.3     1  ZINC000840464592    0.0900
     15 C15        -6.0073    4.0372   53.6885 C.3     1  ZINC000840464592   -0.1600
     16 C16        -7.3114    3.6074   54.3642 C.3     1  ZINC000840464592    0.0800
     17 N17        -7.3994    2.1432   54.3482 N.am    1  ZINC000840464592   -0.7200
     18 C18        -7.6277    1.4895   53.1981 C.2     1  ZINC000840464592    0.5100
     19 O19        -7.6491    0.2770   53.1761 O.2     1  ZINC000840464592   -0.5200
     20 C20        -7.8615    2.2845   51.9250 C.3     1  ZINC000840464592    0.1400
     21 H21        -8.1694    1.6113   51.1249 H       1  ZINC000840464592    0.1300
     22 C22        -8.9532    3.3291   52.1654 C.3     1  ZINC000840464592   -0.1000
     23 C23        -9.9675    3.2608   51.0529 C.ar    1  ZINC000840464592   -0.0900
     24 C24       -11.1197    2.5140   51.2129 C.ar    1  ZINC000840464592   -0.1100
     25 C25       -12.0501    2.4514   50.1926 C.ar    1  ZINC000840464592   -0.1200
     26 C26       -11.8285    3.1360   49.0123 C.ar    1  ZINC000840464592   -0.1200
     27 C27       -10.6768    3.8836   48.8526 C.ar    1  ZINC000840464592   -0.1200
     28 C28        -9.7484    3.9496   49.8746 C.ar    1  ZINC000840464592   -0.1100
     29 H29         3.0335    1.6752   51.2458 H       1  ZINC000840464592    0.0500
     30 H30         2.5424   -0.0200   51.0154 H       1  ZINC000840464592    0.0500
     31 H31         2.8445    1.0190   49.6021 H       1  ZINC000840464592    0.0500
     32 H32         0.4127    0.7356   49.9948 H       1  ZINC000840464592    0.0600
     33 H33         0.6016    1.3919   51.6385 H       1  ZINC000840464592    0.0600
     34 H34         1.3981    3.5308   50.7226 H       1  ZINC000840464592    0.0600
     35 H35         1.3079    2.8789   49.0688 H       1  ZINC000840464592    0.0600
     36 H36        -0.6980    4.2021   49.4941 H       1  ZINC000840464592    0.0600
     37 H37        -1.1560    2.4835   49.4250 H       1  ZINC000840464592    0.0600
     38 H38        -1.2442    2.3352   51.8403 H       1  ZINC000840464592    0.0700
     39 H39        -0.5332    3.9573   52.0188 H       1  ZINC000840464592    0.0700
     40 H40        -2.7463    4.5578   52.2359 H       1  ZINC000840464592    0.0500
     41 H41        -2.6615    4.5794   50.4581 H       1  ZINC000840464592    0.0500
     42 H42        -4.7352    2.5130   48.1709 H       1  ZINC000840464592    0.0800
     43 H43        -3.0839    2.9909   48.6326 H       1  ZINC000840464592    0.0700
     44 H44        -3.7244    1.4069   49.1315 H       1  ZINC000840464592    0.0800
     45 H45        -5.3003    4.5680   51.7349 H       1  ZINC000840464592    0.1000
     46 H46        -7.0108    4.9429   52.0240 H       1  ZINC000840464592    0.0800
     47 H47        -5.2444    3.2777   53.8596 H       1  ZINC000840464592    0.0800
     48 H48        -5.6741    4.9833   54.1153 H       1  ZINC000840464592    0.1000
     49 H49        -7.3220    3.9620   55.3949 H       1  ZINC000840464592    0.0900
     50 H50        -8.1584    4.0295   53.8234 H       1  ZINC000840464592    0.1000
     51 H51        -7.2918    1.6445   55.1732 H       1  ZINC000840464592    0.4000
     52 H52        -9.4444    3.1289   53.1176 H       1  ZINC000840464592    0.0900
     53 H53        -8.5062    4.3229   52.1891 H       1  ZINC000840464592    0.1000
     54 H54       -11.2928    1.9791   52.1351 H       1  ZINC000840464592    0.1200
     55 H55       -12.9500    1.8673   50.3174 H       1  ZINC000840464592    0.1200
     56 H56       -12.5551    3.0865   48.2147 H       1  ZINC000840464592    0.1200
     57 H57       -10.5036    4.4181   47.9302 H       1  ZINC000840464592    0.1200
     58 H58        -8.8486    4.5336   49.7498 H       1  ZINC000840464592    0.1200
@<TRIPOS>BOND
     1     1     2    1
     2     1    29    1
     3     1    30    1
     4     1    31    1
     5     2     3    1
     6     2    32    1
     7     2    33    1
     8     3     4    1
     9     3    34    1
    10     3    35    1
    11     4     5    1
    12     4    36    1
    13     4    37    1
    14     5     6    1
    15     5    38    1
    16     5    39    1
    17     6     7    1
    18     6    40    1
    19     6    41    1
    20     7     8    1
    21     8     9    1
    22     8    10    1
    23     8    11    1
    24    10    42    1
    25    10    43    1
    26    10    44    1
    27    11    12    2
    28    11    13   am
    29    13    20    1
    30    13    14    1
    31    14    15    1
    32    14    45    1
    33    14    46    1
    34    15    16    1
    35    15    47    1
    36    15    48    1
    37    16    17    1
    38    16    49    1
    39    16    50    1
    40    17    18   am
    41    17    51    1
    42    18    19    2
    43    18    20    1
    44    20    21    1
    45    20    22    1
    46    22    23    1
    47    22    52    1
    48    22    53    1
    49    23    28   ar
    50    23    24   ar
    51    24    25   ar
    52    24    54    1
    53    25    26   ar
    54    25    55    1
    55    26    27   ar
    56    26    56    1
    57    27    28   ar
    58    27    57    1
    59    28    58    1
@<TRIPOS>SUBSTRUCTURE
     1 ZINC000840464592        1 TEMP              0 ****  ****    0 ROOT


##########                                Name:    ZINC001362451754
##########                DOCK_Rotatable_Bonds:                   6
##########                         Heavy_Atoms:                  22
##########                    Molecular_Weight:             339.846
##########                DOCK_Rotatable_Bonds:                   6
##########                       Formal_Charge:         -0.00999987
##########                     HBond_Acceptors:                   7
##########                        HBond_Donors:                   1
##########                         Heavy_Atoms:                  22
##########                          Grid_Score:          -33.629307
##########                     Grid_vdw_energy:          -32.440868
##########                      Grid_es_energy:           -1.188438
##########           Internal_energy_repulsive:           19.753254

@<TRIPOS>MOLECULE
ZINC001362451754
 40 42 1 0 0
SMALL
USER_CHARGES


@<TRIPOS>ATOM
      1 C1         -4.7250    2.8037   52.5281 C.3     1  ZINC001362451754   -0.1700
      2 C2         -4.5906    2.9435   51.0103 C.3     1  ZINC001362451754    0.1400
      3 H3         -5.3764    3.5932   50.6249 H       1  ZINC001362451754    0.0800
      4 C4         -3.2065    3.5277   50.6576 C.3     1  ZINC001362451754   -0.1000
      5 H5         -3.2758    4.1894   49.7942 H       1  ZINC001362451754    0.1000
      6 C6         -2.6072    4.2629   51.8581 C.3     1  ZINC001362451754    0.0900
      7 O7         -1.3933    4.9064   51.4653 O.3     1  ZINC001362451754   -0.5700
      8 C8         -2.3731    2.2645   50.3156 C.3     1  ZINC001362451754   -0.1200
      9 C9         -3.4320    1.3657   49.6345 C.3     1  ZINC001362451754    0.0900
     10 N10        -4.6803    1.6201   50.3764 N.am    1  ZINC001362451754   -0.6100
     11 C11        -5.7279    0.7766   50.4638 C.2     1  ZINC001362451754    0.6100
     12 O12        -5.6902   -0.3010   49.8996 O.2     1  ZINC001362451754   -0.5200
     13 C13        -6.9126    1.1574   51.2385 C.2     1  ZINC001362451754   -0.2500
     14 C14        -7.7031    2.2451   50.9948 C.2     1  ZINC001362451754   -0.0500
     15 C15        -8.7467    2.3682   51.8811 C.2     1  ZINC001362451754   -0.1100
     16 C16        -8.8166    1.4099   52.8125 C.2     1  ZINC001362451754   -0.2500
     17 C17        -9.8738    1.3355   53.8838 C.3     1  ZINC001362451754    0.2100
     18 N18       -10.3721   -0.0385   53.9836 N.pl3   1  ZINC001362451754   -0.3700
     19 C19       -10.7236   -0.8333   52.9499 C.2     1  ZINC001362451754    0.0700
     20 C20       -11.1257   -2.0206   53.4610 C.2     1  ZINC001362451754   -0.1800
     21 Cl21      -11.6757   -3.3917   52.5491 Cl      1  ZINC001362451754   -0.0400
     22 C22       -11.0254   -1.9452   54.8547 C.2     1  ZINC001362451754    0.0700
     23 N23       -10.5739   -0.7580   55.1686 N.2     1  ZINC001362451754   -0.2700
     24 S24        -7.5441    0.2880   52.6304 S.3     1  ZINC001362451754    0.2300
     25 H25        -3.9395    2.1477   52.9034 H       1  ZINC001362451754    0.0600
     26 H26        -4.6318    3.7851   52.9930 H       1  ZINC001362451754    0.0700
     27 H27        -5.6993    2.3785   52.7689 H       1  ZINC001362451754    0.0700
     28 H28        -3.3150    5.0102   52.2169 H       1  ZINC001362451754    0.0500
     29 H29        -2.3985    3.5484   52.6545 H       1  ZINC001362451754    0.0500
     30 H30        -1.4801    5.4643   50.6803 H       1  ZINC001362451754    0.3800
     31 H31        -1.5623    2.5057   49.6280 H       1  ZINC001362451754    0.0900
     32 H32        -1.9883    1.7934   51.2201 H       1  ZINC001362451754    0.0800
     33 H33        -3.1490    0.3163   49.7166 H       1  ZINC001362451754    0.0800
     34 H34        -3.5486    1.6473   48.5880 H       1  ZINC001362451754    0.0800
     35 H35        -7.5233    2.9412   50.1889 H       1  ZINC001362451754    0.1600
     36 H36        -9.4602    3.1772   51.8274 H       1  ZINC001362451754    0.1500
     37 H37        -9.4446    1.6366   54.8394 H       1  ZINC001362451754    0.1100
     38 H38       -10.6971    2.0029   53.6288 H       1  ZINC001362451754    0.1100
     39 H39       -10.6879   -0.5699   51.9032 H       1  ZINC001362451754    0.1800
     40 H40       -11.2774   -2.7314   55.5511 H       1  ZINC001362451754    0.1900
@<TRIPOS>BOND
     1     1     2    1
     2     1    25    1
     3     1    26    1
     4     1    27    1
     5     2     3    1
     6     2    10    1
     7     2     4    1
     8     4     5    1
     9     4     6    1
    10     4     8    1
    11     6     7    1
    12     6    28    1
    13     6    29    1
    14     7    30    1
    15     8     9    1
    16     8    31    1
    17     8    32    1
    18     9    10    1
    19     9    33    1
    20     9    34    1
    21    10    11   am
    22    11    12    2
    23    11    13    1
    24    13    24    1
    25    13    14    2
    26    14    15    1
    27    14    35    1
    28    15    16    2
    29    15    36    1
    30    16    17    1
    31    16    24    1
    32    17    18    1
    33    17    37    1
    34    17    38    1
    35    18    23    1
    36    18    19    1
    37    19    20    2
    38    19    39    1
    39    20    21    1
    40    20    22    1
    41    22    23    2
    42    22    40    1
@<TRIPOS>SUBSTRUCTURE
     1 ZINC001362451754        1 TEMP              0 ****  ****    0 ROOT


##########                                Name:    ZINC000481050680
##########                DOCK_Rotatable_Bonds:                   7
##########                         Heavy_Atoms:                  29
##########                    Molecular_Weight:              412.46
##########                DOCK_Rotatable_Bonds:                   7
##########                       Formal_Charge:          -0.0199997
##########                     HBond_Acceptors:                   7
##########                        HBond_Donors:                   1
##########                         Heavy_Atoms:                  29
##########                          Grid_Score:          -33.627949
##########                     Grid_vdw_energy:          -33.565052
##########                      Grid_es_energy:           -0.062895
##########           Internal_energy_repulsive:            8.854527

@<TRIPOS>MOLECULE
ZINC000481050680
 47 49 1 0 0
SMALL
USER_CHARGES


@<TRIPOS>ATOM
      1 N1        -13.7172   -5.7707   56.0422 N.1     1  ZINC000481050680   -0.3900
      2 C2        -12.9858   -5.0918   56.5848 C.1     1  ZINC000481050680    0.2500
      3 C3        -12.0638   -4.2359   57.2690 C.ar    1  ZINC000481050680    0.0200
      4 C4        -12.2657   -2.8544   57.2800 C.ar    1  ZINC000481050680   -0.0800
      5 C5        -11.3744   -2.0344   57.9411 C.ar    1  ZINC000481050680   -0.0800
      6 C6        -10.2820   -2.5772   58.5926 C.ar    1  ZINC000481050680   -0.1000
      7 C7         -9.3131   -1.6749   59.3125 C.3     1  ZINC000481050680   -0.5900
      8 S8         -9.7853   -1.5518   61.0597 S.o2    1  ZINC000481050680    2.6000
      9 O9        -11.0882   -2.0815   61.2626 O.2     1  ZINC000481050680   -0.9300
     10 O10        -8.7016   -1.9310   61.8970 O.2     1  ZINC000481050680   -0.9400
     11 N11        -9.9590    0.0732   61.3273 N.am    1  ZINC000481050680   -1.1100
     12 C12       -10.3425    0.5602   62.6546 C.3     1  ZINC000481050680    0.2100
     13 H13       -10.6025   -0.2859   63.2908 H       1  ZINC000481050680    0.1000
     14 C14       -11.5494    1.4920   62.5269 C.3     1  ZINC000481050680   -0.0800
     15 C15       -12.7734    0.6840   62.1809 C.ar    1  ZINC000481050680   -0.0900
     16 C16       -13.0931    0.4462   60.8572 C.ar    1  ZINC000481050680   -0.1200
     17 C17       -14.2160   -0.2949   60.5397 C.ar    1  ZINC000481050680   -0.1200
     18 C18       -15.0190   -0.7985   61.5459 C.ar    1  ZINC000481050680   -0.1200
     19 C19       -14.6989   -0.5612   62.8696 C.ar    1  ZINC000481050680   -0.1200
     20 C20       -13.5736    0.1762   63.1872 C.ar    1  ZINC000481050680   -0.1200
     21 C21        -9.1892    1.3128   63.2662 C.ar    1  ZINC000481050680   -0.1300
     22 C22        -8.8179    2.5422   62.7562 C.ar    1  ZINC000481050680   -0.0700
     23 C23        -7.7596    3.2329   63.3172 C.ar    1  ZINC000481050680   -0.1300
     24 C24        -7.0716    2.6945   64.3883 C.ar    1  ZINC000481050680   -0.0900
     25 C25        -7.4408    1.4648   64.8998 C.ar    1  ZINC000481050680   -0.1500
     26 C26        -8.5045    0.7752   64.3433 C.ar    1  ZINC000481050680    0.1100
     27 F27        -8.8663   -0.4268   64.8425 F       1  ZINC000481050680   -0.1400
     28 C28       -10.0747   -3.9476   58.5868 C.ar    1  ZINC000481050680    0.1200
     29 F29        -9.0055   -4.4708   59.2259 F       1  ZINC000481050680   -0.1200
     30 C30       -10.9624   -4.7799   57.9326 C.ar    1  ZINC000481050680   -0.1000
     31 H31       -13.1180   -2.4282   56.7716 H       1  ZINC000481050680    0.1500
     32 H32       -11.5302   -0.9657   57.9495 H       1  ZINC000481050680    0.1500
     33 H33        -8.3071   -2.0874   59.2362 H       1  ZINC000481050680    0.1500
     34 H34        -9.3347   -0.6837   58.8596 H       1  ZINC000481050680    0.1500
     35 H35        -9.8066    0.7027   60.6050 H       1  ZINC000481050680    0.4200
     36 H36       -11.7107    2.0091   63.4728 H       1  ZINC000481050680    0.0900
     37 H37       -11.3621    2.2230   61.7405 H       1  ZINC000481050680    0.0900
     38 H38       -12.4657    0.8395   60.0710 H       1  ZINC000481050680    0.1200
     39 H39       -14.4660   -0.4803   59.5055 H       1  ZINC000481050680    0.1200
     40 H40       -15.8967   -1.3768   61.2979 H       1  ZINC000481050680    0.1200
     41 H41       -15.3265   -0.9543   63.6558 H       1  ZINC000481050680    0.1200
     42 H42       -13.3236    0.3615   64.2213 H       1  ZINC000481050680    0.1200
     43 H43        -9.3543    2.9635   61.9188 H       1  ZINC000481050680    0.1300
     44 H44        -7.4702    4.1938   62.9179 H       1  ZINC000481050680    0.1300
     45 H45        -6.2449    3.2349   64.8255 H       1  ZINC000481050680    0.1300
     46 H46        -6.9027    1.0440   65.7364 H       1  ZINC000481050680    0.1400
     47 H47       -10.8009   -5.8477   57.9283 H       1  ZINC000481050680    0.1600
@<TRIPOS>BOND
     1     1     2    3
     2     2     3    1
     3     3    30   ar
     4     3     4   ar
     5     4     5   ar
     6     4    31    1
     7     5     6   ar
     8     5    32    1
     9     6     7    1
    10     6    28   ar
    11     7     8    1
    12     7    33    1
    13     7    34    1
    14     8     9    2
    15     8    10    2
    16     8    11   am
    17    11    12    1
    18    11    35    1
    19    12    13    1
    20    12    14    1
    21    12    21    1
    22    14    15    1
    23    14    36    1
    24    14    37    1
    25    15    20   ar
    26    15    16   ar
    27    16    17   ar
    28    16    38    1
    29    17    18   ar
    30    17    39    1
    31    18    19   ar
    32    18    40    1
    33    19    20   ar
    34    19    41    1
    35    20    42    1
    36    21    26   ar
    37    21    22   ar
    38    22    23   ar
    39    22    43    1
    40    23    24   ar
    41    23    44    1
    42    24    25   ar
    43    24    45    1
    44    25    26   ar
    45    25    46    1
    46    26    27    1
    47    28    29    1
    48    28    30   ar
    49    30    47    1
@<TRIPOS>SUBSTRUCTURE
     1 ZINC000481050680        1 TEMP              0 ****  ****    0 ROOT


##########                                Name:    ZINC000496437542
##########                DOCK_Rotatable_Bonds:                   7
##########                         Heavy_Atoms:                  24
##########                    Molecular_Weight:             338.447
##########                DOCK_Rotatable_Bonds:                   7
##########                       Formal_Charge:           0.0400002
##########                     HBond_Acceptors:                   6
##########                        HBond_Donors:                   1
##########                         Heavy_Atoms:                  24
##########                          Grid_Score:          -33.604599
##########                     Grid_vdw_energy:          -31.838661
##########                      Grid_es_energy:           -1.765938
##########           Internal_energy_repulsive:           15.229554

@<TRIPOS>MOLECULE
ZINC000496437542
 54 55 1 0 0
SMALL
USER_CHARGES


@<TRIPOS>ATOM
      1 C1        -11.9837   -1.5822   60.1762 C.3     1  ZINC000496437542   -0.1800
      2 C2        -11.1626   -1.6700   58.8881 C.3     1  ZINC000496437542    0.1400
      3 C3        -10.1671   -0.5093   58.8377 C.3     1  ZINC000496437542   -0.1800
      4 C4        -10.4011   -2.9967   58.8583 C.3     1  ZINC000496437542   -0.1400
      5 O5        -12.0509   -1.5959   57.7420 O.3     1  ZINC000496437542   -0.3600
      6 C6        -12.7514   -2.7050   57.4387 C.2     1  ZINC000496437542    0.6600
      7 O7        -13.6449   -3.0788   58.1726 O.2     1  ZINC000496437542   -0.5600
      8 N8        -12.4615   -3.4007   56.3214 N.am    1  ZINC000496437542   -0.6000
      9 C9        -13.2133   -4.6157   55.9693 C.3     1  ZINC000496437542    0.0800
     10 C10       -13.6802   -4.4908   54.5145 C.3     1  ZINC000496437542    0.0500
     11 O11       -12.5589   -4.1755   53.6857 O.3     1  ZINC000496437542   -0.3700
     12 C12       -11.9406   -2.9228   53.9894 C.3     1  ZINC000496437542    0.0700
     13 H13       -12.6782   -2.1241   53.9106 H       1  ZINC000496437542    0.0700
     14 C14       -10.7997   -2.6637   53.0034 C.3     1  ZINC000496437542    0.1300
     15 N15       -10.1859   -1.3663   53.2967 N.am    1  ZINC000496437542   -0.7200
     16 C16        -9.0445   -1.0053   52.6774 C.2     1  ZINC000496437542    0.5600
     17 O17        -8.5249   -1.7561   51.8741 O.2     1  ZINC000496437542   -0.5400
     18 C18        -8.4271    0.2967   52.9732 C.2     1  ZINC000496437542   -0.1900
     19 C19        -7.5812    0.8297   52.1184 C.2     1  ZINC000496437542   -0.0600
     20 C20        -6.9396    2.1692   52.4130 C.3     1  ZINC000496437542   -0.1000
     21 C21        -8.0028    3.2606   52.2712 C.3     1  ZINC000496437542   -0.1100
     22 C22        -8.7792    3.4285   53.5645 C.3     1  ZINC000496437542   -0.1200
     23 C23        -9.6392    2.2305   53.9237 C.3     1  ZINC000496437542   -0.1200
     24 C24        -8.7730    1.0203   54.2575 C.3     1  ZINC000496437542   -0.0800
     25 C25       -11.3883   -2.9642   55.4143 C.3     1  ZINC000496437542    0.1000
     26 H26       -12.5262   -0.6370   60.1975 H       1  ZINC000496437542    0.0900
     27 H27       -12.6928   -2.4091   60.2121 H       1  ZINC000496437542    0.0600
     28 H28       -11.3168   -1.6379   61.0366 H       1  ZINC000496437542    0.0700
     29 H29        -9.5003   -0.5649   59.6981 H       1  ZINC000496437542    0.0700
     30 H30        -9.5821   -0.5719   57.9201 H       1  ZINC000496437542    0.0600
     31 H31       -10.7096    0.4359   58.8590 H       1  ZINC000496437542    0.0900
     32 H32       -11.1103   -3.8237   58.8941 H       1  ZINC000496437542    0.0700
     33 H33        -9.8162   -3.0593   57.9406 H       1  ZINC000496437542    0.0700
     34 H34        -9.7342   -3.0523   59.7187 H       1  ZINC000496437542    0.0800
     35 H35       -12.5695   -5.4890   56.0746 H       1  ZINC000496437542    0.0800
     36 H36       -14.0782   -4.7154   56.6252 H       1  ZINC000496437542    0.1000
     37 H37       -14.1184   -5.4349   54.1905 H       1  ZINC000496437542    0.1100
     38 H38       -14.4241   -3.6980   54.4377 H       1  ZINC000496437542    0.0600
     39 H39       -10.0509   -3.4500   53.0994 H       1  ZINC000496437542    0.0900
     40 H40       -11.1924   -2.6583   51.9865 H       1  ZINC000496437542    0.0800
     41 H41       -10.6009   -0.7669   53.9365 H       1  ZINC000496437542    0.4000
     42 H42        -7.3429    0.3094   51.2024 H       1  ZINC000496437542    0.1300
     43 H43        -6.5465    2.1709   53.4297 H       1  ZINC000496437542    0.0800
     44 H44        -6.1311    2.3514   51.7051 H       1  ZINC000496437542    0.0800
     45 H45        -7.5174    4.2035   52.0194 H       1  ZINC000496437542    0.0700
     46 H46        -8.6920    2.9882   51.4719 H       1  ZINC000496437542    0.0700
     47 H47        -8.0715    3.6041   54.3747 H       1  ZINC000496437542    0.0600
     48 H48        -9.4226    4.3035   53.4729 H       1  ZINC000496437542    0.0600
     49 H49       -10.2574    2.4785   54.7865 H       1  ZINC000496437542    0.0700
     50 H50       -10.2841    1.9859   53.0797 H       1  ZINC000496437542    0.0600
     51 H51        -9.3210    0.3491   54.9188 H       1  ZINC000496437542    0.0700
     52 H52        -7.8555    1.3502   54.7449 H       1  ZINC000496437542    0.0800
     53 H53       -11.0425   -1.9716   55.7030 H       1  ZINC000496437542    0.1100
     54 H54       -10.5605   -3.6714   55.4667 H       1  ZINC000496437542    0.0900
@<TRIPOS>BOND
     1     1     2    1
     2     1    26    1
     3     1    27    1
     4     1    28    1
     5     2     3    1
     6     2     4    1
     7     2     5    1
     8     3    29    1
     9     3    30    1
    10     3    31    1
    11     4    32    1
    12     4    33    1
    13     4    34    1
    14     5     6    1
    15     6     7    2
    16     6     8   am
    17     8    25    1
    18     8     9    1
    19     9    10    1
    20     9    35    1
    21     9    36    1
    22    10    11    1
    23    10    37    1
    24    10    38    1
    25    11    12    1
    26    12    13    1
    27    12    14    1
    28    12    25    1
    29    14    15    1
    30    14    39    1
    31    14    40    1
    32    15    16   am
    33    15    41    1
    34    16    17    2
    35    16    18    1
    36    18    24    1
    37    18    19    2
    38    19    20    1
    39    19    42    1
    40    20    21    1
    41    20    43    1
    42    20    44    1
    43    21    22    1
    44    21    45    1
    45    21    46    1
    46    22    23    1
    47    22    47    1
    48    22    48    1
    49    23    24    1
    50    23    49    1
    51    23    50    1
    52    24    51    1
    53    24    52    1
    54    25    53    1
    55    25    54    1
@<TRIPOS>SUBSTRUCTURE
     1 ZINC000496437542        1 TEMP              0 ****  ****    0 ROOT


##########                                Name:    ZINC000279452407
##########                DOCK_Rotatable_Bonds:                   6
##########                         Heavy_Atoms:                  24
##########                    Molecular_Weight:              375.47
##########                DOCK_Rotatable_Bonds:                   6
##########                       Formal_Charge:          0.00999929
##########                     HBond_Acceptors:                  10
##########                        HBond_Donors:                   3
##########                         Heavy_Atoms:                  24
##########                          Grid_Score:          -33.583862
##########                     Grid_vdw_energy:          -29.597942
##########                      Grid_es_energy:           -3.985922
##########           Internal_energy_repulsive:           31.839401

@<TRIPOS>MOLECULE
ZINC000279452407
 45 47 1 0 0
SMALL
USER_CHARGES


@<TRIPOS>ATOM
      1 C1         -5.3632    4.5895   52.1021 C.3     1  ZINC000279452407   -0.1600
      2 C2         -6.1375    3.8623   51.0009 C.3     1  ZINC000279452407    0.0600
      3 H3         -5.8992    4.2977   50.0304 H       1  ZINC000279452407    0.0700
      4 O4         -7.5515    3.9618   51.2486 O.3     1  ZINC000279452407   -0.3700
      5 C5         -8.1480    2.7284   50.7915 C.3     1  ZINC000279452407    0.0500
      6 C6         -7.1268    1.6464   51.2299 C.3     1  ZINC000279452407   -0.1400
      7 C7         -5.7775    2.3694   51.0068 C.3     1  ZINC000279452407    0.0700
      8 C8         -4.8235    2.0580   52.1572 C.3     1  ZINC000279452407    0.1100
      9 N9         -3.4991    2.6111   51.8270 N.am    1  ZINC000279452407   -0.6300
     10 C10        -2.8247    3.3739   52.7101 C.2     1  ZINC000279452407    0.7200
     11 O11        -1.7324    3.8206   52.4178 O.2     1  ZINC000279452407   -0.5800
     12 N12        -3.3612    3.6416   53.9172 N.am    1  ZINC000279452407   -0.7500
     13 C13        -2.6282    4.4708   54.8769 C.3     1  ZINC000279452407    0.2000
     14 C14        -2.3078    3.6554   56.1032 C.2     1  ZINC000279452407   -0.1700
     15 C15        -2.4419    2.3321   56.2034 C.2     1  ZINC000279452407   -0.1400
     16 C16        -2.0844    1.8009   57.4306 C.2     1  ZINC000279452407    0.0100
     17 C17        -1.6601    2.6928   58.3271 C.2     1  ZINC000279452407   -0.7900
     18 S18        -1.1390    2.3152   59.9674 S.o2    1  ZINC000279452407    2.7300
     19 N19        -0.6112    0.7457   59.9650 N.am    1  ZINC000279452407   -1.2500
     20 O20         0.0028    3.1222   60.2214 O.2     1  ZINC000279452407   -0.9600
     21 O21        -2.3069    2.3446   60.7762 O.2     1  ZINC000279452407   -0.9500
     22 S22        -1.6927    4.3023   57.6187 S.3     1  ZINC000279452407    0.2500
     23 C23        -2.9349    2.3044   50.5029 C.3     1  ZINC000279452407    0.0700
     24 C24        -3.9849    2.6403   49.4378 C.3     1  ZINC000279452407    0.0400
     25 O25        -5.2120    1.9798   49.7613 O.3     1  ZINC000279452407   -0.3600
     26 H26        -4.3003    4.5878   51.8606 H       1  ZINC000279452407    0.0700
     27 H27        -5.7172    5.6176   52.1770 H       1  ZINC000279452407    0.0600
     28 H28        -5.5205    4.0808   53.0533 H       1  ZINC000279452407    0.0800
     29 H29        -9.1110    2.5656   51.2755 H       1  ZINC000279452407    0.1000
     30 H30        -8.2586    2.7345   49.7072 H       1  ZINC000279452407    0.0700
     31 H31        -7.2619    1.3860   52.2798 H       1  ZINC000279452407    0.1000
     32 H32        -7.2017    0.7615   50.5980 H       1  ZINC000279452407    0.1000
     33 H33        -5.1935    2.5163   53.0743 H       1  ZINC000279452407    0.1200
     34 H34        -4.7474    0.9786   52.2881 H       1  ZINC000279452407    0.0800
     35 H35        -4.2328    3.2852   54.1503 H       1  ZINC000279452407    0.4000
     36 H36        -1.7020    4.8212   54.4215 H       1  ZINC000279452407    0.1000
     37 H37        -3.2406    5.3269   55.1597 H       1  ZINC000279452407    0.0900
     38 H38        -2.8023    1.7214   55.3889 H       1  ZINC000279452407    0.1600
     39 H39        -2.1450    0.7442   57.6462 H       1  ZINC000279452407    0.1600
     40 H40        -0.2805    0.3439   60.7836 H       1  ZINC000279452407    0.4200
     41 H41        -0.6326    0.2281   59.1449 H       1  ZINC000279452407    0.4200
     42 H42        -2.0405    2.9050   50.3378 H       1  ZINC000279452407    0.0900
     43 H43        -2.6836    1.2452   50.4482 H       1  ZINC000279452407    0.0900
     44 H44        -4.1470    3.7179   49.4136 H       1  ZINC000279452407    0.0600
     45 H45        -3.6354    2.3019   48.4625 H       1  ZINC000279452407    0.1100
@<TRIPOS>BOND
     1     1     2    1
     2     1    26    1
     3     1    27    1
     4     1    28    1
     5     2     3    1
     6     2     7    1
     7     2     4    1
     8     4     5    1
     9     5     6    1
    10     5    29    1
    11     5    30    1
    12     6     7    1
    13     6    31    1
    14     6    32    1
    15     7    25    1
    16     7     8    1
    17     8     9    1
    18     8    33    1
    19     8    34    1
    20     9    10   am
    21     9    23    1
    22    10    11    2
    23    10    12   am
    24    12    13    1
    25    12    35    1
    26    13    14    1
    27    13    36    1
    28    13    37    1
    29    14    22    1
    30    14    15    2
    31    15    16    1
    32    15    38    1
    33    16    17    2
    34    16    39    1
    35    17    18    1
    36    17    22    1
    37    18    19   am
    38    18    20    2
    39    18    21    2
    40    19    40    1
    41    19    41    1
    42    23    24    1
    43    23    42    1
    44    23    43    1
    45    24    25    1
    46    24    44    1
    47    24    45    1
@<TRIPOS>SUBSTRUCTURE
     1 ZINC000279452407        1 TEMP              0 ****  ****    0 ROOT


##########                                Name:    ZINC001310073555
##########                DOCK_Rotatable_Bonds:                  12
##########                         Heavy_Atoms:                  27
##########                    Molecular_Weight:             380.484
##########                DOCK_Rotatable_Bonds:                  12
##########                       Formal_Charge:          0.00999888
##########                     HBond_Acceptors:                   7
##########                        HBond_Donors:                   2
##########                         Heavy_Atoms:                  27
##########                          Grid_Score:          -33.567276
##########                     Grid_vdw_energy:          -34.431316
##########                      Grid_es_energy:            0.864039
##########           Internal_energy_repulsive:           55.734356

@<TRIPOS>MOLECULE
ZINC001310073555
 59 59 1 0 0
SMALL
USER_CHARGES


@<TRIPOS>ATOM
      1 C1         -6.3564    0.6144   50.4787 C.3     1  ZINC001310073555   -0.1600
      2 C2         -7.1181    0.9046   51.7735 C.3     1  ZINC001310073555   -0.1100
      3 C3         -7.1794    2.4163   52.0012 C.3     1  ZINC001310073555   -0.0600
      4 C4         -8.1832    3.0383   51.0283 C.3     1  ZINC001310073555   -0.1100
      5 C5         -8.3158    4.5344   51.3196 C.3     1  ZINC001310073555   -0.1600
      6 C6         -7.6208    2.6980   53.4387 C.3     1  ZINC001310073555    0.1600
      7 N7         -9.0237    2.3099   53.6038 N.am    1  ZINC001310073555   -0.7400
      8 C8         -9.3370    1.1860   54.2787 C.2     1  ZINC001310073555    0.7100
      9 O9         -8.4553    0.4951   54.7518 O.2     1  ZINC001310073555   -0.5700
     10 N10       -10.6277    0.8281   54.4291 N.am    1  ZINC001310073555   -0.6700
     11 C11       -10.9541   -0.3424   55.1320 C.ar    1  ZINC001310073555    0.1000
     12 C12       -10.9105   -0.3545   56.5176 C.ar    1  ZINC001310073555   -0.0400
     13 C13       -11.2319   -1.5070   57.2099 C.ar    1  ZINC001310073555   -0.2200
     14 C14       -11.5989   -2.6530   56.5207 C.ar    1  ZINC001310073555    0.1500
     15 O15       -11.9145   -3.7851   57.2045 O.3     1  ZINC001310073555   -0.3200
     16 C16       -10.8267   -4.5748   57.6892 C.3     1  ZINC001310073555    0.0300
     17 C17       -11.6449   -2.6454   55.1343 C.ar    1  ZINC001310073555   -0.2300
     18 C18       -11.3277   -1.4911   54.4382 C.ar    1  ZINC001310073555    0.1400
     19 O19       -11.3721   -1.4816   53.0791 O.3     1  ZINC001310073555   -0.3100
     20 C20       -10.4101   -2.2852   52.3930 C.3     1  ZINC001310073555    0.0300
     21 C21        -5.8164    3.0151   51.7676 C.2     1  ZINC001310073555    0.4800
     22 O22        -5.5300    3.4598   50.6812 O.2     1  ZINC001310073555   -0.5000
     23 O23        -4.9205    3.0547   52.7663 O.3     1  ZINC001310073555   -0.3400
     24 C24        -3.6692    3.7425   52.5026 C.3     1  ZINC001310073555    0.1200
     25 C25        -2.8083    3.7377   53.7673 C.3     1  ZINC001310073555   -0.1800
     26 C26        -2.9225    3.0280   51.3745 C.3     1  ZINC001310073555   -0.1400
     27 C27        -3.9587    5.1866   52.0881 C.3     1  ZINC001310073555   -0.1800
     28 H28        -6.3128   -0.4627   50.3164 H       1  ZINC001310073555    0.0600
     29 H29        -6.8697    1.0873   49.6414 H       1  ZINC001310073555    0.0500
     30 H30        -5.3443    1.0115   50.5557 H       1  ZINC001310073555    0.0600
     31 H31        -8.1303    0.5073   51.6965 H       1  ZINC001310073555    0.0800
     32 H32        -6.6049    0.4315   52.6107 H       1  ZINC001310073555    0.0800
     33 H33        -7.8336    2.8968   50.0056 H       1  ZINC001310073555    0.0800
     34 H34        -9.1536    2.5569   51.1504 H       1  ZINC001310073555    0.0800
     35 H35        -8.6655    4.6758   52.3423 H       1  ZINC001310073555    0.0600
     36 H36        -7.3455    5.0158   51.1976 H       1  ZINC001310073555    0.0500
     37 H37        -9.0310    4.9775   50.6266 H       1  ZINC001310073555    0.0600
     38 H38        -7.0015    2.1240   54.1280 H       1  ZINC001310073555    0.0800
     39 H39        -7.5106    3.7615   53.6508 H       1  ZINC001310073555    0.0800
     40 H40        -9.7271    2.8616   53.2275 H       1  ZINC001310073555    0.4000
     41 H41       -11.3311    1.3791   54.0517 H       1  ZINC001310073555    0.4100
     42 H42       -10.6249    0.5369   57.0565 H       1  ZINC001310073555    0.1500
     43 H43       -11.1968   -1.5151   58.2893 H       1  ZINC001310073555    0.1300
     44 H44       -10.2125   -4.9013   56.8499 H       1  ZINC001310073555    0.0600
     45 H45       -10.2213   -3.9791   58.3723 H       1  ZINC001310073555    0.0600
     46 H46       -11.2164   -5.4464   58.2149 H       1  ZINC001310073555    0.1000
     47 H47       -11.9307   -3.5383   54.5983 H       1  ZINC001310073555    0.1400
     48 H48       -10.5556   -2.1870   51.3173 H       1  ZINC001310073555    0.1000
     49 H49        -9.4057   -1.9532   52.6556 H       1  ZINC001310073555    0.0600
     50 H50       -10.5352   -3.3286   52.6828 H       1  ZINC001310073555    0.0600
     51 H51        -2.6021    2.7090   54.0626 H       1  ZINC001310073555    0.0600
     52 H52        -1.8689    4.2541   53.5694 H       1  ZINC001310073555    0.0700
     53 H53        -3.3403    4.2468   54.5710 H       1  ZINC001310073555    0.0800
     54 H54        -3.5359    3.0314   50.4735 H       1  ZINC001310073555    0.0700
     55 H55        -1.9831    3.5443   51.1765 H       1  ZINC001310073555    0.0800
     56 H56        -2.7163    1.9992   51.6698 H       1  ZINC001310073555    0.0700
     57 H57        -4.4907    5.6957   52.8918 H       1  ZINC001310073555    0.0800
     58 H58        -3.0194    5.7029   51.8901 H       1  ZINC001310073555    0.0700
     59 H59        -4.5720    5.1900   51.1870 H       1  ZINC001310073555    0.0600
@<TRIPOS>BOND
     1     1     2    1
     2     1    28    1
     3     1    29    1
     4     1    30    1
     5     2     3    1
     6     2    31    1
     7     2    32    1
     8     3     4    1
     9     3     6    1
    10     3    21    1
    11     4     5    1
    12     4    33    1
    13     4    34    1
    14     5    35    1
    15     5    36    1
    16     5    37    1
    17     6     7    1
    18     6    38    1
    19     6    39    1
    20     7     8   am
    21     7    40    1
    22     8     9    2
    23     8    10   am
    24    10    11    1
    25    10    41    1
    26    11    18   ar
    27    11    12   ar
    28    12    13   ar
    29    12    42    1
    30    13    14   ar
    31    13    43    1
    32    14    15    1
    33    14    17   ar
    34    15    16    1
    35    16    44    1
    36    16    45    1
    37    16    46    1
    38    17    18   ar
    39    17    47    1
    40    18    19    1
    41    19    20    1
    42    20    48    1
    43    20    49    1
    44    20    50    1
    45    21    22    2
    46    21    23    1
    47    23    24    1
    48    24    25    1
    49    24    26    1
    50    24    27    1
    51    25    51    1
    52    25    52    1
    53    25    53    1
    54    26    54    1
    55    26    55    1
    56    26    56    1
    57    27    57    1
    58    27    58    1
    59    27    59    1
@<TRIPOS>SUBSTRUCTURE
     1 ZINC001310073555        1 TEMP              0 ****  ****    0 ROOT


##########                                Name:    ZINC000949401225
##########                DOCK_Rotatable_Bonds:                   7
##########                         Heavy_Atoms:                  24
##########                    Molecular_Weight:             332.403
##########                DOCK_Rotatable_Bonds:                   7
##########                       Formal_Charge:                0.03
##########                     HBond_Acceptors:                   7
##########                        HBond_Donors:                   1
##########                         Heavy_Atoms:                  24
##########                          Grid_Score:          -33.493744
##########                     Grid_vdw_energy:          -31.266844
##########                      Grid_es_energy:           -2.226899
##########           Internal_energy_repulsive:            9.932182

@<TRIPOS>MOLECULE
ZINC000949401225
 48 50 1 0 0
SMALL
USER_CHARGES


@<TRIPOS>ATOM
      1 C1          4.7293    5.5090   49.9201 C.3     1  ZINC000949401225    0.0700
      2 N2          3.9843    4.2482   49.9584 N.pl3   1  ZINC000949401225   -0.4500
      3 C3          4.5436    3.0174   50.1428 C.2     1  ZINC000949401225   -0.0100
      4 C4          3.5699    2.0899   50.1222 C.2     1  ZINC000949401225   -0.1700
      5 C5          2.3134    2.8158   49.9075 C.2     1  ZINC000949401225   -0.2400
      6 C6          0.9626    2.2373   49.8097 C.2     1  ZINC000949401225    0.5900
      7 O7          0.8071    1.0354   49.9106 O.2     1  ZINC000949401225   -0.5500
      8 N8         -0.1011    3.0400   49.6084 N.am    1  ZINC000949401225   -0.7300
      9 C9         -1.4447    2.4645   49.5094 C.3     1  ZINC000949401225    0.1200
     10 C10        -2.0175    2.2616   50.9135 C.3     1  ZINC000949401225    0.1200
     11 H11        -1.6157    1.3776   51.4087 H       1  ZINC000949401225    0.1000
     12 C12        -1.9666    3.5255   51.7830 C.3     1  ZINC000949401225   -0.1500
     13 C13        -3.3439    3.0399   52.2554 C.3     1  ZINC000949401225    0.1000
     14 N14        -3.4848    2.3458   50.9653 N.am    1  ZINC000949401225   -0.6400
     15 C15        -4.5081    1.9598   50.1777 C.2     1  ZINC000949401225    0.5500
     16 O16        -4.2860    1.3844   49.1334 O.2     1  ZINC000949401225   -0.5200
     17 C17        -5.9283    2.2430   50.5947 C.3     1  ZINC000949401225   -0.1400
     18 C18        -6.2700    1.4158   51.8356 C.3     1  ZINC000949401225    0.1500
     19 H19        -5.3750    1.2486   52.4351 H       1  ZINC000949401225    0.0900
     20 C20        -7.3497    2.1334   52.6758 C.3     1  ZINC000949401225   -0.1200
     21 C21        -8.1755    0.9413   53.2124 C.3     1  ZINC000949401225   -0.1600
     22 C22        -7.9360   -0.1602   52.2034 C.2     1  ZINC000949401225    0.5200
     23 O23        -8.6103   -1.1625   52.0959 O.2     1  ZINC000949401225   -0.5300
     24 N24        -6.8652    0.1330   51.4429 N.am    1  ZINC000949401225   -0.6200
     25 C25        -6.3615   -0.7174   50.3616 C.3     1  ZINC000949401225    0.0900
     26 C26         2.6490    4.1389   49.8223 C.2     1  ZINC000949401225    0.0800
     27 H27         4.8026    5.9184   50.9276 H       1  ZINC000949401225    0.0800
     28 H28         5.7301    5.3279   49.5279 H       1  ZINC000949401225    0.0900
     29 H29         4.2097    6.2187   49.2763 H       1  ZINC000949401225    0.0900
     30 H30         5.5962    2.8201   50.2824 H       1  ZINC000949401225    0.1700
     31 H31         3.6893    1.0230   50.2400 H       1  ZINC000949401225    0.1500
     32 H32         0.0228    3.9987   49.5292 H       1  ZINC000949401225    0.4000
     33 H33        -2.0893    3.1411   48.9482 H       1  ZINC000949401225    0.0700
     34 H34        -1.3917    1.5042   48.9963 H       1  ZINC000949401225    0.0900
     35 H35        -1.1971    3.5064   52.5546 H       1  ZINC000949401225    0.1000
     36 H36        -1.9908    4.4575   51.2184 H       1  ZINC000949401225    0.1000
     37 H37        -3.2963    2.3629   53.1085 H       1  ZINC000949401225    0.0900
     38 H38        -4.0637    3.8462   52.3962 H       1  ZINC000949401225    0.0800
     39 H39        -6.0352    3.3032   50.8240 H       1  ZINC000949401225    0.1000
     40 H40        -6.6053    1.9767   49.7830 H       1  ZINC000949401225    0.1000
     41 H41        -6.8982    2.6947   53.4937 H       1  ZINC000949401225    0.1000
     42 H42        -7.9627    2.7826   52.0507 H       1  ZINC000949401225    0.0800
     43 H43        -7.8169    0.6412   54.1970 H       1  ZINC000949401225    0.1100
     44 H44        -9.2341    1.1979   53.2528 H       1  ZINC000949401225    0.1000
     45 H45        -7.0336   -1.5641   50.2221 H       1  ZINC000949401225    0.0800
     46 H46        -6.3093   -0.1392   49.4390 H       1  ZINC000949401225    0.0600
     47 H47        -5.3669   -1.0815   50.6189 H       1  ZINC000949401225    0.0600
     48 H48         1.9609    4.9565   49.6658 H       1  ZINC000949401225    0.1800
@<TRIPOS>BOND
     1     1     2    1
     2     1    27    1
     3     1    28    1
     4     1    29    1
     5     2    26    1
     6     2     3    1
     7     3     4    2
     8     3    30    1
     9     4     5    1
    10     4    31    1
    11     5     6    1
    12     5    26    2
    13     6     7    2
    14     6     8   am
    15     8     9    1
    16     8    32    1
    17     9    10    1
    18     9    33    1
    19     9    34    1
    20    10    11    1
    21    10    14    1
    22    10    12    1
    23    12    13    1
    24    12    35    1
    25    12    36    1
    26    13    14    1
    27    13    37    1
    28    13    38    1
    29    14    15   am
    30    15    16    2
    31    15    17    1
    32    17    18    1
    33    17    39    1
    34    17    40    1
    35    18    19    1
    36    18    24    1
    37    18    20    1
    38    20    21    1
    39    20    41    1
    40    20    42    1
    41    21    22    1
    42    21    43    1
    43    21    44    1
    44    22    23    2
    45    22    24   am
    46    24    25    1
    47    25    45    1
    48    25    46    1
    49    25    47    1
    50    26    48    1
@<TRIPOS>SUBSTRUCTURE
     1 ZINC000949401225        1 TEMP              0 ****  ****    0 ROOT


##########                                Name:    ZINC001009984555
##########                DOCK_Rotatable_Bonds:                   7
##########                         Heavy_Atoms:                  23
##########                    Molecular_Weight:             338.446
##########                DOCK_Rotatable_Bonds:                   7
##########                       Formal_Charge:           0.0400002
##########                     HBond_Acceptors:                   6
##########                        HBond_Donors:                   1
##########                         Heavy_Atoms:                  23
##########                          Grid_Score:          -33.462608
##########                     Grid_vdw_energy:          -30.825537
##########                      Grid_es_energy:           -2.637072
##########           Internal_energy_repulsive:           10.182552

@<TRIPOS>MOLECULE
ZINC001009984555
 46 47 1 0 0
SMALL
USER_CHARGES


@<TRIPOS>ATOM
      1 C1          2.5947    1.8612   45.3519 C.3     1  ZINC001009984555   -0.1400
      2 S2          2.4401    2.8624   46.8567 S.3     1  ZINC001009984555   -0.1800
      3 C3          2.6813    1.6473   48.1818 C.3     1  ZINC001009984555   -0.1300
      4 C4          2.5610    2.3317   49.5190 C.2     1  ZINC001009984555    0.5500
      5 O5          3.5520    2.5328   50.1886 O.2     1  ZINC001009984555   -0.5100
      6 N6          1.3521    2.7203   49.9708 N.am    1  ZINC001009984555   -0.6100
      7 C7          0.0706    2.5319   49.2669 C.3     1  ZINC001009984555    0.1000
      8 C8         -1.0019    2.5482   50.3846 C.3     1  ZINC001009984555   -0.1100
      9 H9         -1.0687    1.5777   50.8762 H       1  ZINC001009984555    0.1000
     10 C10        -2.3635    2.9746   49.8319 C.3     1  ZINC001009984555    0.1300
     11 N11        -3.4225    2.2212   50.5080 N.am    1  ZINC001009984555   -0.7300
     12 C12        -4.6394    2.1108   49.9391 C.2     1  ZINC001009984555    0.5600
     13 O13        -4.8577    2.6353   48.8645 O.2     1  ZINC001009984555   -0.5200
     14 C14        -5.7087    1.3519   50.6222 C.ar    1  ZINC001009984555   -0.1200
     15 C15        -5.9404    0.0160   50.2915 C.ar    1  ZINC001009984555   -0.0900
     16 C16        -6.9397   -0.6878   50.9319 C.ar    1  ZINC001009984555   -0.1000
     17 C17        -7.7122   -0.0728   51.9001 C.ar    1  ZINC001009984555   -0.1200
     18 C18        -7.4883    1.2535   52.2341 C.ar    1  ZINC001009984555    0.0900
     19 F19        -8.2468    1.8480   53.1809 F       1  ZINC001009984555   -0.1300
     20 C20        -6.4866    1.9669   51.6042 C.ar    1  ZINC001009984555   -0.0500
     21 C21        -6.2431    3.4090   51.9676 C.3     1  ZINC001009984555   -0.1200
     22 C22        -0.4311    3.6218   51.3484 C.3     1  ZINC001009984555   -0.1200
     23 C23         1.0923    3.3964   51.2502 C.3     1  ZINC001009984555    0.1400
     24 H24         1.6109    4.3550   51.2691 H       1  ZINC001009984555    0.0800
     25 C25         1.5657    2.5260   52.4160 C.3     1  ZINC001009984555   -0.1700
     26 H26         1.8301    1.0845   45.3522 H       1  ZINC001009984555    0.0800
     27 H27         2.4652    2.4981   44.4769 H       1  ZINC001009984555    0.1100
     28 H28         3.5817    1.3996   45.3224 H       1  ZINC001009984555    0.0800
     29 H29         1.9230    0.8682   48.1028 H       1  ZINC001009984555    0.1100
     30 H30         3.6716    1.2012   48.0899 H       1  ZINC001009984555    0.1100
     31 H31        -0.1004    3.3484   48.5652 H       1  ZINC001009984555    0.0800
     32 H32         0.0610    1.5745   48.7459 H       1  ZINC001009984555    0.0800
     33 H33        -2.5085    4.0409   50.0059 H       1  ZINC001009984555    0.0800
     34 H34        -2.4005    2.7727   48.7615 H       1  ZINC001009984555    0.0800
     35 H35        -3.2479    1.8016   51.3650 H       1  ZINC001009984555    0.4000
     36 H36        -5.3388   -0.4661   49.5351 H       1  ZINC001009984555    0.1300
     37 H37        -7.1191   -1.7217   50.6760 H       1  ZINC001009984555    0.1400
     38 H38        -8.4935   -0.6283   52.3977 H       1  ZINC001009984555    0.1400
     39 H39        -5.4315    3.4689   52.6927 H       1  ZINC001009984555    0.0800
     40 H40        -5.9725    3.9686   51.0722 H       1  ZINC001009984555    0.1000
     41 H41        -7.1493    3.8325   52.4007 H       1  ZINC001009984555    0.0600
     42 H42        -0.6989    4.6235   51.0121 H       1  ZINC001009984555    0.0900
     43 H43        -0.7792    3.4499   52.3669 H       1  ZINC001009984555    0.0900
     44 H44         1.0566    1.5627   52.3804 H       1  ZINC001009984555    0.0600
     45 H45         2.6419    2.3711   52.3401 H       1  ZINC001009984555    0.0700
     46 H46         1.3358    3.0238   53.3580 H       1  ZINC001009984555    0.0700
@<TRIPOS>BOND
     1     1     2    1
     2     1    26    1
     3     1    27    1
     4     1    28    1
     5     2     3    1
     6     3     4    1
     7     3    29    1
     8     3    30    1
     9     4     5    2
    10     4     6   am
    11     6    23    1
    12     6     7    1
    13     7     8    1
    14     7    31    1
    15     7    32    1
    16     8     9    1
    17     8    10    1
    18     8    22    1
    19    10    11    1
    20    10    33    1
    21    10    34    1
    22    11    12   am
    23    11    35    1
    24    12    13    2
    25    12    14    1
    26    14    20   ar
    27    14    15   ar
    28    15    16   ar
    29    15    36    1
    30    16    17   ar
    31    16    37    1
    32    17    18   ar
    33    17    38    1
    34    18    19    1
    35    18    20   ar
    36    20    21    1
    37    21    39    1
    38    21    40    1
    39    21    41    1
    40    22    23    1
    41    22    42    1
    42    22    43    1
    43    23    24    1
    44    23    25    1
    45    25    44    1
    46    25    45    1
    47    25    46    1
@<TRIPOS>SUBSTRUCTURE
     1 ZINC001009984555        1 TEMP              0 ****  ****    0 ROOT


##########                                Name:    ZINC000549381790
##########                DOCK_Rotatable_Bonds:                   7
##########                         Heavy_Atoms:                  23
##########                    Molecular_Weight:             337.846
##########                DOCK_Rotatable_Bonds:                   7
##########                       Formal_Charge:           0.0300006
##########                     HBond_Acceptors:                   5
##########                        HBond_Donors:                   0
##########                         Heavy_Atoms:                  23
##########                          Grid_Score:          -33.457851
##########                     Grid_vdw_energy:          -33.689770
##########                      Grid_es_energy:            0.231919
##########           Internal_energy_repulsive:           89.286743

@<TRIPOS>MOLECULE
ZINC000549381790
 47 49 1 0 0
SMALL
USER_CHARGES


@<TRIPOS>ATOM
      1 C1         -4.3626    4.3574   52.8272 C.3     1  ZINC000549381790   -0.1400
      2 C2         -4.5323    3.6151   51.5003 C.3     1  ZINC000549381790    0.1500
      3 H3         -4.7902    4.3253   50.7146 H       1  ZINC000549381790    0.0700
      4 C4         -3.2251    2.9026   51.1395 C.3     1  ZINC000549381790   -0.1300
      5 C5         -3.4419    2.0506   49.8867 C.3     1  ZINC000549381790   -0.1200
      6 C6         -4.5086    0.9898   50.1676 C.3     1  ZINC000549381790   -0.1400
      7 C7         -5.8304    1.6806   50.5174 C.3     1  ZINC000549381790    0.1000
      8 N8         -5.5999    2.6139   51.6290 N.am    1  ZINC000549381790   -0.6100
      9 C9         -6.3501    2.5493   52.7467 C.2     1  ZINC000549381790    0.5200
     10 O10        -6.1499    3.3252   53.6572 O.2     1  ZINC000549381790   -0.5000
     11 C11        -7.4376    1.5127   52.8654 C.3     1  ZINC000549381790    0.0400
     12 O12        -8.0483    1.6084   54.1538 O.3     1  ZINC000549381790   -0.2800
     13 C13        -9.0482    0.7290   54.4299 C.ar    1  ZINC000549381790    0.1100
     14 C14        -9.5173    0.5980   55.7283 C.ar    1  ZINC000549381790   -0.1700
     15 C15       -10.5336   -0.2950   56.0093 C.ar    1  ZINC000549381790   -0.1600
     16 C16       -11.0843   -1.0609   54.9934 C.ar    1  ZINC000549381790    0.1100
     17 O17       -12.0846   -1.9399   55.2701 O.3     1  ZINC000549381790   -0.3000
     18 C18       -11.6990   -3.2520   55.6845 C.3     1  ZINC000549381790    0.0900
     19 C19       -12.9451   -4.1280   55.8291 C.3     1  ZINC000549381790   -0.1600
     20 C20       -12.8842   -5.2829   56.8308 C.3     1  ZINC000549381790   -0.1700
     21 C21       -13.7208   -4.0411   57.1450 C.3     1  ZINC000549381790   -0.1700
     22 C22       -10.6150   -0.9301   53.6935 C.ar    1  ZINC000549381790   -0.0300
     23 Cl23      -11.3046   -1.8886   52.4208 Cl      1  ZINC000549381790   -0.0400
     24 C24        -9.6025   -0.0327   53.4118 C.ar    1  ZINC000549381790   -0.1000
     25 H25        -4.2041    3.6364   53.6292 H       1  ZINC000549381790    0.0600
     26 H26        -3.5028    5.0243   52.7631 H       1  ZINC000549381790    0.0500
     27 H27        -5.2598    4.9404   53.0348 H       1  ZINC000549381790    0.0800
     28 H28        -2.4487    3.6428   50.9461 H       1  ZINC000549381790    0.0800
     29 H29        -2.9196    2.2619   51.9667 H       1  ZINC000549381790    0.0700
     30 H30        -3.7712    2.6885   49.0664 H       1  ZINC000549381790    0.0700
     31 H31        -2.5067    1.5619   49.6136 H       1  ZINC000549381790    0.0700
     32 H32        -4.6459    0.3686   49.2826 H       1  ZINC000549381790    0.0800
     33 H33        -4.1911    0.3672   51.0041 H       1  ZINC000549381790    0.0700
     34 H34        -6.1955    2.2312   49.6504 H       1  ZINC000549381790    0.0800
     35 H35        -6.5660    0.9331   50.8144 H       1  ZINC000549381790    0.0800
     36 H36        -8.1883    1.6838   52.0939 H       1  ZINC000549381790    0.0900
     37 H37        -7.0077    0.5190   52.7399 H       1  ZINC000549381790    0.0900
     38 H38        -9.0881    1.1940   56.5201 H       1  ZINC000549381790    0.1400
     39 H39       -10.8987   -0.3967   57.0206 H       1  ZINC000549381790    0.1400
     40 H40       -11.0332   -3.6875   54.9395 H       1  ZINC000549381790    0.0700
     41 H41       -11.1830   -3.1934   56.6429 H       1  ZINC000549381790    0.0700
     42 H42       -13.5192   -4.2832   54.9157 H       1  ZINC000549381790    0.1200
     43 H43       -13.4184   -6.1984   56.5763 H       1  ZINC000549381790    0.1000
     44 H44       -11.9565   -5.4187   57.3866 H       1  ZINC000549381790    0.1000
     45 H45       -13.3435   -3.3599   57.9077 H       1  ZINC000549381790    0.1000
     46 H46       -14.8053   -4.1396   57.0973 H       1  ZINC000549381790    0.1000
     47 H47        -9.2371    0.0694   52.4006 H       1  ZINC000549381790    0.1500
@<TRIPOS>BOND
     1     1     2    1
     2     1    25    1
     3     1    26    1
     4     1    27    1
     5     2     3    1
     6     2     8    1
     7     2     4    1
     8     4     5    1
     9     4    28    1
    10     4    29    1
    11     5     6    1
    12     5    30    1
    13     5    31    1
    14     6     7    1
    15     6    32    1
    16     6    33    1
    17     7     8    1
    18     7    34    1
    19     7    35    1
    20     8     9   am
    21     9    10    2
    22     9    11    1
    23    11    12    1
    24    11    36    1
    25    11    37    1
    26    12    13    1
    27    13    24   ar
    28    13    14   ar
    29    14    15   ar
    30    14    38    1
    31    15    16   ar
    32    15    39    1
    33    16    17    1
    34    16    22   ar
    35    17    18    1
    36    18    19    1
    37    18    40    1
    38    18    41    1
    39    19    21    1
    40    19    20    1
    41    19    42    1
    42    20    21    1
    43    20    43    1
    44    20    44    1
    45    21    45    1
    46    21    46    1
    47    22    23    1
    48    22    24   ar
    49    24    47    1
@<TRIPOS>SUBSTRUCTURE
     1 ZINC000549381790        1 TEMP              0 ****  ****    0 ROOT


##########                                Name:    ZINC000417533280
##########                DOCK_Rotatable_Bonds:                   9
##########                         Heavy_Atoms:                  26
##########                    Molecular_Weight:             367.439
##########                DOCK_Rotatable_Bonds:                   9
##########                       Formal_Charge:         -0.00999999
##########                     HBond_Acceptors:                   7
##########                        HBond_Donors:                   2
##########                         Heavy_Atoms:                  26
##########                          Grid_Score:          -33.432251
##########                     Grid_vdw_energy:          -31.255117
##########                      Grid_es_energy:           -2.177134
##########           Internal_energy_repulsive:           12.929714

@<TRIPOS>MOLECULE
ZINC000417533280
 53 54 1 0 0
SMALL
USER_CHARGES


@<TRIPOS>ATOM
      1 C1         -9.9302   -2.8479   59.9875 C.3     1  ZINC000417533280   -0.1600
      2 C2        -10.2996   -3.4896   58.6485 C.3     1  ZINC000417533280   -0.1200
      3 C3        -11.1965   -2.5363   57.8563 C.3     1  ZINC000417533280   -0.1200
      4 C4        -11.5999   -3.1951   56.5355 C.3     1  ZINC000417533280   -0.1300
      5 C5        -12.3614   -2.1858   55.6739 C.3     1  ZINC000417533280    0.1200
      6 N6        -11.4437   -1.1353   55.2263 N.am    1  ZINC000417533280   -0.7300
      7 C7        -11.9313    0.0275   54.7504 C.2     1  ZINC000417533280    0.5200
      8 O8        -13.1297    0.2048   54.6941 O.2     1  ZINC000417533280   -0.5400
      9 C9        -10.9872    1.1076   54.2883 C.3     1  ZINC000417533280   -0.1100
     10 C10        -9.5581    0.7455   54.6990 C.3     1  ZINC000417533280   -0.1300
     11 C11        -8.6061    1.8618   54.2581 C.3     1  ZINC000417533280    0.1300
     12 N12        -8.7803    2.0903   52.8173 N.am    1  ZINC000417533280   -0.6200
     13 C13        -7.7219    2.0553   51.9835 C.2     1  ZINC000417533280    0.7100
     14 O14        -7.8793    2.2461   50.7931 O.2     1  ZINC000417533280   -0.5600
     15 N15        -6.4892    1.8089   52.4694 N.am    1  ZINC000417533280   -0.6800
     16 C16        -5.3893    1.7725   51.6030 C.ar    1  ZINC000417533280    0.1900
     17 C17        -5.0882    0.6074   50.9110 C.ar    1  ZINC000417533280   -0.1100
     18 C18        -4.0032    0.5725   50.0561 C.ar    1  ZINC000417533280   -0.1100
     19 C19        -3.2158    1.6981   49.8888 C.ar    1  ZINC000417533280    0.0500
     20 F20        -2.1557    1.6617   49.0521 F       1  ZINC000417533280   -0.1300
     21 C21        -3.5141    2.8638   50.5788 C.ar    1  ZINC000417533280    0.0900
     22 F22        -2.7446    3.9618   50.4144 F       1  ZINC000417533280   -0.1200
     23 C23        -4.6025    2.9035   51.4311 C.ar    1  ZINC000417533280   -0.1300
     24 C24        -4.9276    4.1697   52.1808 C.3     1  ZINC000417533280   -0.1200
     25 C25       -10.1302    2.3572   52.3024 C.3     1  ZINC000417533280    0.1100
     26 C26       -11.0652    1.2354   52.7653 C.3     1  ZINC000417533280   -0.1200
     27 H27        -9.3984   -1.9135   59.8081 H       1  ZINC000417533280    0.0500
     28 H28       -10.8379   -2.6460   60.5562 H       1  ZINC000417533280    0.0500
     29 H29        -9.2913   -3.5271   60.5519 H       1  ZINC000417533280    0.0500
     30 H30        -9.3919   -3.6915   58.0797 H       1  ZINC000417533280    0.0600
     31 H31       -10.8313   -4.4241   58.8279 H       1  ZINC000417533280    0.0600
     32 H32       -12.0903   -2.3109   58.4378 H       1  ZINC000417533280    0.0700
     33 H33       -10.6540   -1.6134   57.6511 H       1  ZINC000417533280    0.0700
     34 H34       -10.7060   -3.5239   56.0056 H       1  ZINC000417533280    0.0700
     35 H35       -12.2387   -4.0546   56.7385 H       1  ZINC000417533280    0.0700
     36 H36       -12.7832   -2.6937   54.8065 H       1  ZINC000417533280    0.0700
     37 H37       -13.1650   -1.7406   56.2606 H       1  ZINC000417533280    0.0700
     38 H38       -10.4852   -1.2766   55.2725 H       1  ZINC000417533280    0.4000
     39 H39       -11.2676    2.0556   54.7471 H       1  ZINC000417533280    0.1000
     40 H40        -9.5086    0.6317   55.7818 H       1  ZINC000417533280    0.0800
     41 H41        -9.2681   -0.1901   54.2207 H       1  ZINC000417533280    0.0800
     42 H42        -8.8379    2.7765   54.8039 H       1  ZINC000417533280    0.0700
     43 H43        -7.5768    1.5649   54.4592 H       1  ZINC000417533280    0.1000
     44 H44        -6.3637    1.6568   53.4191 H       1  ZINC000417533280    0.4100
     45 H45        -5.7018   -0.2718   51.0411 H       1  ZINC000417533280    0.1700
     46 H46        -3.7692   -0.3344   49.5183 H       1  ZINC000417533280    0.1500
     47 H47        -5.6037    4.7819   51.5840 H       1  ZINC000417533280    0.0800
     48 H48        -5.4051    3.9187   53.1280 H       1  ZINC000417533280    0.0700
     49 H49        -4.0091    4.7243   52.3728 H       1  ZINC000417533280    0.0800
     50 H50       -10.4864    3.3123   52.6886 H       1  ZINC000417533280    0.0800
     51 H51       -10.1066    2.3872   51.2131 H       1  ZINC000417533280    0.0800
     52 H52       -10.7609    0.2952   52.3051 H       1  ZINC000417533280    0.0800
     53 H53       -12.0883    1.4703   52.4718 H       1  ZINC000417533280    0.0900
@<TRIPOS>BOND
     1     1     2    1
     2     1    27    1
     3     1    28    1
     4     1    29    1
     5     2     3    1
     6     2    30    1
     7     2    31    1
     8     3     4    1
     9     3    32    1
    10     3    33    1
    11     4     5    1
    12     4    34    1
    13     4    35    1
    14     5     6    1
    15     5    36    1
    16     5    37    1
    17     6     7   am
    18     6    38    1
    19     7     8    2
    20     7     9    1
    21     9    26    1
    22     9    10    1
    23     9    39    1
    24    10    11    1
    25    10    40    1
    26    10    41    1
    27    11    12    1
    28    11    42    1
    29    11    43    1
    30    12    13   am
    31    12    25    1
    32    13    14    2
    33    13    15   am
    34    15    16    1
    35    15    44    1
    36    16    23   ar
    37    16    17   ar
    38    17    18   ar
    39    17    45    1
    40    18    19   ar
    41    18    46    1
    42    19    20    1
    43    19    21   ar
    44    21    22    1
    45    21    23   ar
    46    23    24    1
    47    24    47    1
    48    24    48    1
    49    24    49    1
    50    25    26    1
    51    25    50    1
    52    25    51    1
    53    26    52    1
    54    26    53    1
@<TRIPOS>SUBSTRUCTURE
     1 ZINC000417533280        1 TEMP              0 ****  ****    0 ROOT


##########                                Name:    ZINC000854704989
##########                DOCK_Rotatable_Bonds:                   5
##########                         Heavy_Atoms:                  22
##########                    Molecular_Weight:             365.227
##########                DOCK_Rotatable_Bonds:                   5
##########                       Formal_Charge:        -1.78814e-07
##########                     HBond_Acceptors:                   5
##########                        HBond_Donors:                   1
##########                         Heavy_Atoms:                  22
##########                          Grid_Score:          -33.413296
##########                     Grid_vdw_energy:          -33.103195
##########                      Grid_es_energy:           -0.310101
##########           Internal_energy_repulsive:            6.870396

@<TRIPOS>MOLECULE
ZINC000854704989
 39 41 1 0 0
SMALL
USER_CHARGES


@<TRIPOS>ATOM
      1 O1         -5.9424    2.1271   49.5160 O.2     1  ZINC000854704989   -0.5300
      2 C2         -4.9841    1.6215   50.0671 C.2     1  ZINC000854704989    0.5700
      3 N3         -5.0660    0.3624   50.5407 N.am    1  ZINC000854704989   -0.7300
      4 C4         -6.3119   -0.3948   50.3969 C.3     1  ZINC000854704989    0.2000
      5 C5         -7.2230   -0.0880   51.5574 C.2     1  ZINC000854704989   -0.0500
      6 C6         -7.0771    0.9105   52.4604 C.2     1  ZINC000854704989   -0.1700
      7 C7         -8.1869    0.7551   53.3240 C.2     1  ZINC000854704989    0.0000
      8 Br8        -8.6123    1.8227   54.8258 Br      1  ZINC000854704989    0.0600
      9 N9         -8.8577   -0.2690   52.8791 N.2     1  ZINC000854704989   -0.3200
     10 O10        -8.3408   -0.7461   51.8956 O.3     1  ZINC000854704989    0.1300
     11 C11        -3.7267    2.3857   50.2123 C.ar    1  ZINC000854704989   -0.1300
     12 C12        -3.7567    3.7046   50.6675 C.ar    1  ZINC000854704989   -0.0900
     13 C13        -2.5797    4.4119   50.8011 C.ar    1  ZINC000854704989   -0.1200
     14 C14        -1.3717    3.8167   50.4846 C.ar    1  ZINC000854704989   -0.0900
     15 C15        -1.3350    2.5092   50.0327 C.ar    1  ZINC000854704989   -0.0800
     16 C16        -0.0144    1.8689   49.6903 C.3     1  ZINC000854704989   -0.0800
     17 H17        -0.1823    0.8465   49.3518 H       1  ZINC000854704989    0.0900
     18 C18         0.8853    1.8566   50.9299 C.3     1  ZINC000854704989   -0.1100
     19 C19         2.2507    1.2752   50.5505 C.3     1  ZINC000854704989   -0.1600
     20 C20         2.8479    2.0999   49.4073 C.3     1  ZINC000854704989    0.0600
     21 O21         1.9476    2.0954   48.2976 O.3     1  ZINC000854704989   -0.3800
     22 C22         0.6696    2.6697   48.5791 C.3     1  ZINC000854704989    0.0700
     23 C23        -2.5039    1.7891   49.9000 C.ar    1  ZINC000854704989   -0.0500
     24 H24        -4.3000   -0.0424   50.9770 H       1  ZINC000854704989    0.4000
     25 H25        -6.8026   -0.1133   49.4652 H       1  ZINC000854704989    0.1100
     26 H26        -6.0889   -1.4616   50.3821 H       1  ZINC000854704989    0.1000
     27 H27        -6.2945    1.6531   52.5102 H       1  ZINC000854704989    0.1900
     28 H28        -4.6992    4.1706   50.9142 H       1  ZINC000854704989    0.1200
     29 H29        -2.6015    5.4326   51.1534 H       1  ZINC000854704989    0.1300
     30 H30        -0.4531    4.3749   50.5904 H       1  ZINC000854704989    0.1300
     31 H31         1.0121    2.8746   51.2985 H       1  ZINC000854704989    0.0700
     32 H32         0.4295    1.2409   51.7052 H       1  ZINC000854704989    0.0700
     33 H33         2.9155    1.3138   51.4134 H       1  ZINC000854704989    0.0800
     34 H34         2.1295    0.2409   50.2288 H       1  ZINC000854704989    0.0700
     35 H35         3.0064    3.1248   49.7427 H       1  ZINC000854704989    0.0500
     36 H36         3.8004    1.6649   49.1043 H       1  ZINC000854704989    0.1000
     37 H37         0.0541    2.6454   47.6799 H       1  ZINC000854704989    0.1000
     38 H38         0.7986    3.7022   48.9038 H       1  ZINC000854704989    0.0500
     39 H39        -2.4739    0.7686   49.5476 H       1  ZINC000854704989    0.1400
@<TRIPOS>BOND
     1     1     2    2
     2     2     3   am
     3     2    11    1
     4     3     4    1
     5     3    24    1
     6     4     5    1
     7     4    25    1
     8     4    26    1
     9     5    10    1
    10     5     6    2
    11     6     7    1
    12     6    27    1
    13     7     8    1
    14     7     9    2
    15     9    10    1
    16    11    23   ar
    17    11    12   ar
    18    12    13   ar
    19    12    28    1
    20    13    14   ar
    21    13    29    1
    22    14    15   ar
    23    14    30    1
    24    15    16    1
    25    15    23   ar
    26    16    17    1
    27    16    22    1
    28    16    18    1
    29    18    19    1
    30    18    31    1
    31    18    32    1
    32    19    20    1
    33    19    33    1
    34    19    34    1
    35    20    21    1
    36    20    35    1
    37    20    36    1
    38    21    22    1
    39    22    37    1
    40    22    38    1
    41    23    39    1
@<TRIPOS>SUBSTRUCTURE
     1 ZINC000854704989        1 TEMP              0 ****  ****    0 ROOT


##########                                Name:    ZINC000501032137
##########                DOCK_Rotatable_Bonds:                  10
##########                         Heavy_Atoms:                  25
##########                    Molecular_Weight:             407.307
##########                DOCK_Rotatable_Bonds:                  10
##########                       Formal_Charge:           0.0099998
##########                     HBond_Acceptors:                   5
##########                        HBond_Donors:                   1
##########                         Heavy_Atoms:                  25
##########                          Grid_Score:          -33.402504
##########                     Grid_vdw_energy:          -32.940975
##########                      Grid_es_energy:           -0.461530
##########           Internal_energy_repulsive:            8.403824

@<TRIPOS>MOLECULE
ZINC000501032137
 48 50 1 0 0
SMALL
USER_CHARGES


@<TRIPOS>ATOM
      1 C1        -14.6047   -0.6057   48.5720 C.3     1  ZINC000501032137   -0.1500
      2 C2        -13.9591   -0.3374   49.9330 C.3     1  ZINC000501032137   -0.1200
      3 C3        -13.2586   -1.6059   50.4241 C.3     1  ZINC000501032137    0.0600
      4 O4        -12.6807   -1.3640   51.7084 O.3     1  ZINC000501032137   -0.3800
      5 C5        -11.9264   -2.4634   52.2227 C.3     1  ZINC000501032137    0.0500
      6 C6        -11.2461   -2.0485   53.5289 C.3     1  ZINC000501032137    0.1600
      7 H7        -10.4349   -2.7415   53.7520 H       1  ZINC000501032137    0.1000
      8 C8        -12.2679   -2.0758   54.6672 C.3     1  ZINC000501032137   -0.0900
      9 C9        -11.5965   -1.6728   55.9547 C.ar    1  ZINC000501032137   -0.0600
     10 C10       -11.5931   -0.3474   56.3469 C.ar    1  ZINC000501032137   -0.0900
     11 C11       -10.9772    0.0229   57.5281 C.ar    1  ZINC000501032137   -0.1100
     12 C12       -10.3647   -0.9320   58.3171 C.ar    1  ZINC000501032137   -0.0900
     13 C13       -10.3678   -2.2587   57.9250 C.ar    1  ZINC000501032137   -0.0800
     14 Br14       -9.5296   -3.5660   59.0043 Br      1  ZINC000501032137   -0.0600
     15 C15       -10.9889   -2.6295   56.7462 C.ar    1  ZINC000501032137   -0.0800
     16 N16       -10.7064   -0.6937   53.3895 N.am    1  ZINC000501032137   -0.7100
     17 C17        -9.5263   -0.4990   52.7682 C.2     1  ZINC000501032137    0.6100
     18 O18        -8.9102   -1.4478   52.3221 O.2     1  ZINC000501032137   -0.5200
     19 C19        -8.9824    0.8641   52.6295 C.2     1  ZINC000501032137   -0.0800
     20 C20        -7.7235    1.1959   52.2331 C.2     1  ZINC000501032137    0.0800
     21 C21        -6.6217    0.2404   51.8533 C.3     1  ZINC000501032137   -0.0800
     22 C22        -6.4753   -0.1165   50.3728 C.3     1  ZINC000501032137   -0.1700
     23 C23        -5.4497    0.7993   51.0439 C.3     1  ZINC000501032137   -0.1500
     24 O24        -7.6501    2.5364   52.2444 O.3     1  ZINC000501032137   -0.2000
     25 C25        -8.8372    3.0181   52.6389 C.2     1  ZINC000501032137    0.1800
     26 N26        -9.6464    2.0276   52.8681 N.2     1  ZINC000501032137   -0.4600
     27 H27       -13.8358   -0.8964   47.8562 H       1  ZINC000501032137    0.0600
     28 H28       -15.3344   -1.4096   48.6682 H       1  ZINC000501032137    0.0600
     29 H29       -15.1038    0.2980   48.2222 H       1  ZINC000501032137    0.0600
     30 H30       -13.2295    0.4666   49.8369 H       1  ZINC000501032137    0.0700
     31 H31       -14.7280   -0.0466   50.6489 H       1  ZINC000501032137    0.0700
     32 H32       -13.9842   -2.4158   50.4988 H       1  ZINC000501032137    0.0500
     33 H33       -12.4748   -1.8840   49.7195 H       1  ZINC000501032137    0.0500
     34 H34       -12.5931   -3.3047   52.4117 H       1  ZINC000501032137    0.0700
     35 H35       -11.1690   -2.7562   51.4956 H       1  ZINC000501032137    0.0600
     36 H36       -13.0769   -1.3796   54.4460 H       1  ZINC000501032137    0.0900
     37 H37       -12.6726   -3.0828   54.7681 H       1  ZINC000501032137    0.0800
     38 H38       -12.0715    0.3993   55.7303 H       1  ZINC000501032137    0.1200
     39 H39       -10.9746    1.0587   57.8340 H       1  ZINC000501032137    0.1300
     40 H40        -9.8833   -0.6426   59.2396 H       1  ZINC000501032137    0.1300
     41 H41       -10.9918   -3.6652   56.4398 H       1  ZINC000501032137    0.1200
     42 H42       -11.1984    0.0632   53.7443 H       1  ZINC000501032137    0.4100
     43 H43        -6.4029   -0.5389   52.5834 H       1  ZINC000501032137    0.1500
     44 H44        -6.1602   -1.1311   50.1285 H       1  ZINC000501032137    0.1100
     45 H45        -7.1758    0.3396   49.6735 H       1  ZINC000501032137    0.1000
     46 H46        -5.4757    1.8581   50.7861 H       1  ZINC000501032137    0.1000
     47 H47        -4.4600    0.3874   51.2411 H       1  ZINC000501032137    0.1100
     48 H48        -9.0833    4.0642   52.7459 H       1  ZINC000501032137    0.2500
@<TRIPOS>BOND
     1     1     2    1
     2     1    27    1
     3     1    28    1
     4     1    29    1
     5     2     3    1
     6     2    30    1
     7     2    31    1
     8     3     4    1
     9     3    32    1
    10     3    33    1
    11     4     5    1
    12     5     6    1
    13     5    34    1
    14     5    35    1
    15     6     7    1
    16     6     8    1
    17     6    16    1
    18     8     9    1
    19     8    36    1
    20     8    37    1
    21     9    15   ar
    22     9    10   ar
    23    10    11   ar
    24    10    38    1
    25    11    12   ar
    26    11    39    1
    27    12    13   ar
    28    12    40    1
    29    13    14    1
    30    13    15   ar
    31    15    41    1
    32    16    17   am
    33    16    42    1
    34    17    18    2
    35    17    19    1
    36    19    26    1
    37    19    20    2
    38    20    21    1
    39    20    24    1
    40    21    23    1
    41    21    22    1
    42    21    43    1
    43    22    23    1
    44    22    44    1
    45    22    45    1
    46    23    46    1
    47    23    47    1
    48    24    25    1
    49    25    26    2
    50    25    48    1
@<TRIPOS>SUBSTRUCTURE
     1 ZINC000501032137        1 TEMP              0 ****  ****    0 ROOT


##########                                Name:    ZINC001120957943
##########                DOCK_Rotatable_Bonds:                   4
##########                         Heavy_Atoms:                  27
##########                    Molecular_Weight:             396.802
##########                DOCK_Rotatable_Bonds:                   4
##########                       Formal_Charge:          -0.0199996
##########                     HBond_Acceptors:                  10
##########                        HBond_Donors:                   0
##########                         Heavy_Atoms:                  27
##########                          Grid_Score:          -33.390816
##########                     Grid_vdw_energy:          -33.159058
##########                      Grid_es_energy:           -0.231756
##########           Internal_energy_repulsive:            5.031509

@<TRIPOS>MOLECULE
ZINC001120957943
 43 46 1 0 0
SMALL
USER_CHARGES


@<TRIPOS>ATOM
      1 C1        -14.2646   -5.5011   56.4381 C.3     1  ZINC001120957943    0.0900
      2 N2        -13.8287   -4.1086   56.3069 N.pl3   1  ZINC001120957943   -0.6000
      3 C3        -14.1559   -3.3494   55.0975 C.3     1  ZINC001120957943    0.2200
      4 C4        -12.9581   -3.3201   54.1835 C.2     1  ZINC001120957943    0.1600
      5 N5        -12.4549   -4.3347   53.5282 N.2     1  ZINC001120957943   -0.2500
      6 N6        -11.4330   -3.9476   52.8444 N.2     1  ZINC001120957943   -0.2800
      7 C7        -11.2413   -2.6775   53.0334 C.2     1  ZINC001120957943    0.1700
      8 C8        -10.1703   -1.7919   52.4479 C.3     1  ZINC001120957943   -0.0300
      9 C9        -10.1208   -0.4961   53.2687 C.3     1  ZINC001120957943   -0.1300
     10 C10       -11.5406    0.0542   53.4321 C.3     1  ZINC001120957943   -0.1500
     11 H11       -12.0254    0.1031   52.4570 H       1  ZINC001120957943    0.1300
     12 C12       -11.4766    1.4566   54.0404 C.3     1  ZINC001120957943    0.4600
     13 F13       -12.7738    1.9560   54.1986 F       1  ZINC001120957943   -0.1700
     14 F14       -10.8451    1.3957   55.2874 F       1  ZINC001120957943   -0.1800
     15 F15       -10.7523    2.3004   53.1915 F       1  ZINC001120957943   -0.1800
     16 C16       -12.3453   -0.8667   54.3567 C.3     1  ZINC001120957943    0.1100
     17 N17       -12.2069   -2.2433   53.8825 N.pl3   1  ZINC001120957943   -0.4700
     18 C18       -13.1061   -3.5091   57.3280 C.ar    1  ZINC001120957943    0.3700
     19 C19       -13.6502   -2.4102   58.0155 C.ar    1  ZINC001120957943    0.0500
     20 N20       -12.9820   -1.8310   58.9837 N.ar    1  ZINC001120957943   -0.3900
     21 C21       -11.7700   -2.2877   59.3232 C.ar    1  ZINC001120957943    0.0400
     22 C22       -11.0339   -1.6850   60.3572 C.ar    1  ZINC001120957943   -0.0600
     23 C23        -9.8033   -2.1704   60.6821 C.ar    1  ZINC001120957943   -0.0400
     24 Cl24       -8.8983   -1.4219   61.9606 Cl      1  ZINC001120957943   -0.0600
     25 C25        -9.2605   -3.2605   60.0025 C.ar    1  ZINC001120957943   -0.0800
     26 C26        -9.9454   -3.8685   58.9959 C.ar    1  ZINC001120957943   -0.0800
     27 C27       -11.2179   -3.3950   58.6327 C.ar    1  ZINC001120957943    0.1400
     28 N28       -11.9155   -3.9780   57.6501 N.ar    1  ZINC001120957943   -0.4700
     29 H29       -13.4966   -6.1618   56.0357 H       1  ZINC001120957943    0.0700
     30 H30       -14.4284   -5.7330   57.4904 H       1  ZINC001120957943    0.0800
     31 H31       -15.1933   -5.6447   55.8856 H       1  ZINC001120957943    0.0700
     32 H32       -14.9923   -3.8249   54.5853 H       1  ZINC001120957943    0.1200
     33 H33       -14.4292   -2.3303   55.3711 H       1  ZINC001120957943    0.1000
     34 H34        -9.2060   -2.2973   52.4997 H       1  ZINC001120957943    0.1100
     35 H35       -10.4103   -1.5612   51.4101 H       1  ZINC001120957943    0.1000
     36 H36        -9.6956   -0.7033   54.2507 H       1  ZINC001120957943    0.0900
     37 H37        -9.5032    0.2386   52.7519 H       1  ZINC001120957943    0.1000
     38 H38       -11.9637   -0.7868   55.3746 H       1  ZINC001120957943    0.1000
     39 H39       -13.3965   -0.5791   54.3345 H       1  ZINC001120957943    0.1100
     40 H40       -14.6274   -2.0395   57.7436 H       1  ZINC001120957943    0.1700
     41 H41       -11.4421   -0.8402   60.8920 H       1  ZINC001120957943    0.1500
     42 H42        -8.2828   -3.6270   60.2786 H       1  ZINC001120957943    0.1400
     43 H43        -9.5127   -4.7117   58.4779 H       1  ZINC001120957943    0.1500
@<TRIPOS>BOND
     1     1     2    1
     2     1    29    1
     3     1    30    1
     4     1    31    1
     5     2     3    1
     6     2    18    1
     7     3     4    1
     8     3    32    1
     9     3    33    1
    10     4    17    1
    11     4     5    2
    12     5     6    1
    13     6     7    2
    14     7    17    1
    15     7     8    1
    16     8     9    1
    17     8    34    1
    18     8    35    1
    19     9    10    1
    20     9    36    1
    21     9    37    1
    22    10    11    1
    23    10    12    1
    24    10    16    1
    25    12    13    1
    26    12    14    1
    27    12    15    1
    28    16    17    1
    29    16    38    1
    30    16    39    1
    31    18    28   ar
    32    18    19   ar
    33    19    20   ar
    34    19    40    1
    35    20    21   ar
    36    21    27   ar
    37    21    22   ar
    38    22    23   ar
    39    22    41    1
    40    23    24    1
    41    23    25   ar
    42    25    26   ar
    43    25    42    1
    44    26    27   ar
    45    26    43    1
    46    27    28   ar
@<TRIPOS>SUBSTRUCTURE
     1 ZINC001120957943        1 TEMP              0 ****  ****    0 ROOT


##########                                Name:    ZINC001015666108
##########                DOCK_Rotatable_Bonds:                   7
##########                         Heavy_Atoms:                  25
##########                    Molecular_Weight:             346.429
##########                DOCK_Rotatable_Bonds:                   7
##########                       Formal_Charge:          -0.0199997
##########                     HBond_Acceptors:                   7
##########                        HBond_Donors:                   1
##########                         Heavy_Atoms:                  25
##########                          Grid_Score:          -33.382484
##########                     Grid_vdw_energy:          -31.426933
##########                      Grid_es_energy:           -1.955553
##########           Internal_energy_repulsive:           23.042994

@<TRIPOS>MOLECULE
ZINC001015666108
 51 53 1 0 0
SMALL
USER_CHARGES


@<TRIPOS>ATOM
      1 C1         -8.5797    2.9300   51.3688 C.3     1  ZINC001015666108   -0.1400
      2 C2         -9.7854    2.3524   52.1131 C.3     1  ZINC001015666108   -0.0700
      3 C3         -9.3427    1.8251   53.4536 C.2     1  ZINC001015666108   -0.0700
      4 C4         -9.9621    0.8600   54.1947 C.2     1  ZINC001015666108   -0.0900
      5 C5        -11.1884    0.1449   53.8262 C.2     1  ZINC001015666108    0.6100
      6 O6        -11.7548    0.4067   52.7813 O.2     1  ZINC001015666108   -0.5100
      7 N7        -11.6880   -0.8022   54.6446 N.am    1  ZINC001015666108   -0.7200
      8 C8        -12.9140   -1.5152   54.2774 C.3     1  ZINC001015666108    0.1400
      9 H9        -13.5422   -0.8863   53.6466 H       1  ZINC001015666108    0.1100
     10 C10       -12.5695   -2.8336   53.5472 C.3     1  ZINC001015666108   -0.1300
     11 C11       -12.6449   -3.8873   54.6805 C.3     1  ZINC001015666108    0.0300
     12 N12       -13.7885   -3.4191   55.5045 N.3     1  ZINC001015666108   -0.5100
     13 C13       -13.7284   -3.9854   56.8586 C.3     1  ZINC001015666108    0.1700
     14 H14       -14.4414   -3.4682   57.5006 H       1  ZINC001015666108    0.0900
     15 C15       -14.0774   -5.4741   56.8048 C.3     1  ZINC001015666108   -0.1500
     16 C16       -12.3375   -3.8152   57.4131 C.2     1  ZINC001015666108    0.1900
     17 N17       -11.8835   -2.7811   58.0792 N.2     1  ZINC001015666108   -0.4800
     18 C18       -10.6024   -3.0708   58.3686 C.2     1  ZINC001015666108    0.1800
     19 C19        -9.6397   -2.1953   59.1285 C.3     1  ZINC001015666108    0.0000
     20 C20       -10.2734   -0.8222   59.3609 C.3     1  ZINC001015666108   -0.1500
     21 C21        -9.3168   -2.8427   60.4767 C.3     1  ZINC001015666108   -0.1500
     22 N22       -10.3474   -4.2445   57.8728 N.2     1  ZINC001015666108   -0.3800
     23 O23       -11.3328   -4.6920   57.3248 O.3     1  ZINC001015666108    0.1000
     24 C24       -13.6830   -1.9421   55.5414 C.3     1  ZINC001015666108    0.0300
     25 O25        -9.2485    0.6794   55.3252 O.3     1  ZINC001015666108   -0.1700
     26 C26        -8.1932    1.5040   55.3213 C.2     1  ZINC001015666108    0.0000
     27 C27        -8.2105    2.2267   54.1795 C.2     1  ZINC001015666108   -0.2200
     28 H28        -8.8998    3.3114   50.3992 H       1  ZINC001015666108    0.0600
     29 H29        -8.1465    3.7414   51.9535 H       1  ZINC001015666108    0.0600
     30 H30        -7.8339    2.1484   51.2236 H       1  ZINC001015666108    0.0500
     31 H31       -10.5312    3.1340   52.2583 H       1  ZINC001015666108    0.0900
     32 H32       -10.2186    1.5409   51.5284 H       1  ZINC001015666108    0.0700
     33 H33       -11.2360   -1.0116   55.4769 H       1  ZINC001015666108    0.4000
     34 H34       -13.3047   -3.0482   52.7714 H       1  ZINC001015666108    0.0900
     35 H35       -11.5649   -2.7905   53.1266 H       1  ZINC001015666108    0.0800
     36 H36       -12.8451   -4.8779   54.2720 H       1  ZINC001015666108    0.0800
     37 H37       -11.7250   -3.8899   55.2651 H       1  ZINC001015666108    0.0500
     38 H38       -13.3645   -5.9914   56.1626 H       1  ZINC001015666108    0.0800
     39 H39       -14.0328   -5.8944   57.8095 H       1  ZINC001015666108    0.0700
     40 H40       -15.0834   -5.5973   56.4037 H       1  ZINC001015666108    0.0800
     41 H41        -8.7218   -2.0789   58.5522 H       1  ZINC001015666108    0.1000
     42 H42       -11.1913   -0.9385   59.9371 H       1  ZINC001015666108    0.0600
     43 H43        -9.5771   -0.1889   59.9106 H       1  ZINC001015666108    0.0700
     44 H44       -10.5035   -0.3610   58.4005 H       1  ZINC001015666108    0.0600
     45 H45       -10.2346   -2.9591   61.0530 H       1  ZINC001015666108    0.0600
     46 H46        -8.8652   -3.8208   60.3111 H       1  ZINC001015666108    0.0600
     47 H47        -8.6204   -2.2094   61.0264 H       1  ZINC001015666108    0.0700
     48 H48       -13.1361   -1.6311   56.4315 H       1  ZINC001015666108    0.0600
     49 H49       -14.6787   -1.4986   55.5404 H       1  ZINC001015666108    0.1000
     50 H50        -7.4486    1.5765   56.1002 H       1  ZINC001015666108    0.2100
     51 H51        -7.4919    2.9769   53.8842 H       1  ZINC001015666108    0.1600
@<TRIPOS>BOND
     1     1     2    1
     2     1    28    1
     3     1    29    1
     4     1    30    1
     5     2     3    1
     6     2    31    1
     7     2    32    1
     8     3    27    1
     9     3     4    2
    10     4     5    1
    11     4    25    1
    12     5     6    2
    13     5     7   am
    14     7     8    1
    15     7    33    1
    16     8     9    1
    17     8    24    1
    18     8    10    1
    19    10    11    1
    20    10    34    1
    21    10    35    1
    22    11    12    1
    23    11    36    1
    24    11    37    1
    25    12    13    1
    26    12    24    1
    27    13    14    1
    28    13    15    1
    29    13    16    1
    30    15    38    1
    31    15    39    1
    32    15    40    1
    33    16    23    1
    34    16    17    2
    35    17    18    1
    36    18    19    1
    37    18    22    2
    38    19    20    1
    39    19    21    1
    40    19    41    1
    41    20    42    1
    42    20    43    1
    43    20    44    1
    44    21    45    1
    45    21    46    1
    46    21    47    1
    47    22    23    1
    48    24    48    1
    49    24    49    1
    50    25    26    1
    51    26    27    2
    52    26    50    1
    53    27    51    1
@<TRIPOS>SUBSTRUCTURE
     1 ZINC001015666108        1 TEMP              0 ****  ****    0 ROOT


##########                                Name:    ZINC000888733009
##########                DOCK_Rotatable_Bonds:                   6
##########                         Heavy_Atoms:                  25
##########                    Molecular_Weight:             360.434
##########                DOCK_Rotatable_Bonds:                   6
##########                       Formal_Charge:        -1.02073e-06
##########                     HBond_Acceptors:                   7
##########                        HBond_Donors:                   2
##########                         Heavy_Atoms:                  25
##########                          Grid_Score:          -33.358795
##########                     Grid_vdw_energy:          -31.841055
##########                      Grid_es_energy:           -1.517742
##########           Internal_energy_repulsive:            7.094574

@<TRIPOS>MOLECULE
ZINC000888733009
 45 48 1 0 0
SMALL
USER_CHARGES


@<TRIPOS>ATOM
      1 C1         -0.7315    2.7029   60.6111 C.3     1  ZINC000888733009   -0.1500
      2 C2         -1.9679    3.0286   59.7707 C.3     1  ZINC000888733009    0.0700
      3 H3         -2.8746    2.8720   60.3549 H       1  ZINC000888733009    0.0700
      4 C4         -1.9942    2.1577   58.4917 C.3     1  ZINC000888733009   -0.1300
      5 C5         -2.5463    3.1065   57.4194 C.3     1  ZINC000888733009   -0.1100
      6 C6         -1.7395    3.1899   56.1261 C.3     1  ZINC000888733009   -0.1300
      7 C7         -3.0900    3.2982   55.3943 C.3     1  ZINC000888733009    0.1200
      8 N8         -3.1466    2.5251   54.1511 N.am    1  ZINC000888733009   -0.7100
      9 C9         -3.8261    3.0038   53.0902 C.2     1  ZINC000888733009    0.5900
     10 O10        -4.3916    4.0791   53.1645 O.2     1  ZINC000888733009   -0.5600
     11 C11        -3.8841    2.2295   51.8469 C.2     1  ZINC000888733009   -0.2400
     12 C12        -5.0258    1.6322   51.3774 C.2     1  ZINC000888733009    0.0800
     13 N13        -6.2577    1.6824   52.0085 N.am    1  ZINC000888733009   -0.6100
     14 C14        -7.0234    0.5756   52.0810 C.2     1  ZINC000888733009    0.6000
     15 O15        -6.6316   -0.4683   51.5933 O.2     1  ZINC000888733009   -0.4900
     16 C16        -8.3280    0.6292   52.7473 C.2     1  ZINC000888733009   -0.0900
     17 C17        -9.2470   -0.3801   52.7948 C.2     1  ZINC000888733009   -0.1000
     18 C18       -10.3402    0.1040   53.5300 C.2     1  ZINC000888733009   -0.2300
     19 C19       -10.0445    1.3713   53.8947 C.2     1  ZINC000888733009    0.0100
     20 O20        -8.8289    1.6821   53.4261 O.3     1  ZINC000888733009   -0.1600
     21 S21        -4.7207    0.8200   49.9103 S.3     1  ZINC000888733009    0.3000
     22 C22        -3.0284    1.2838   49.9154 C.2     1  ZINC000888733009   -0.2800
     23 C23        -2.7447    2.0187   50.9811 C.2     1  ZINC000888733009   -0.0900
     24 C24        -3.7183    2.5738   56.5992 C.3     1  ZINC000888733009   -0.1400
     25 C25        -2.7868    4.4372   58.1445 C.3     1  ZINC000888733009    0.0700
     26 O26        -1.9064    4.3912   59.2930 O.3     1  ZINC000888733009   -0.3700
     27 H27        -0.7132    3.3425   61.4935 H       1  ZINC000888733009    0.0600
     28 H28        -0.7672    1.6583   60.9201 H       1  ZINC000888733009    0.0700
     29 H29         0.1667    2.8759   60.0183 H       1  ZINC000888733009    0.0600
     30 H30        -0.9882    1.8286   58.2312 H       1  ZINC000888733009    0.0800
     31 H31        -2.6563    1.3020   58.6242 H       1  ZINC000888733009    0.0800
     32 H32        -1.1270    4.0883   56.0495 H       1  ZINC000888733009    0.0800
     33 H33        -1.1882    2.2785   55.8948 H       1  ZINC000888733009    0.0900
     34 H34        -3.4379    4.3237   55.2706 H       1  ZINC000888733009    0.1200
     35 H35        -2.6949    1.6688   54.0916 H       1  ZINC000888733009    0.4000
     36 H36        -6.5694    2.5142   52.3983 H       1  ZINC000888733009    0.4400
     37 H37        -9.1513   -1.3605   52.3520 H       1  ZINC000888733009    0.1700
     38 H38       -11.2473   -0.4349   53.7608 H       1  ZINC000888733009    0.1600
     39 H39       -10.6816    2.0243   54.4726 H       1  ZINC000888733009    0.2200
     40 H40        -2.3157    1.0109   49.1513 H       1  ZINC000888733009    0.1700
     41 H41        -1.7606    2.4134   51.1865 H       1  ZINC000888733009    0.1500
     42 H42        -3.7266    1.4883   56.5016 H       1  ZINC000888733009    0.0900
     43 H43        -4.6838    2.9810   56.8998 H       1  ZINC000888733009    0.0800
     44 H44        -2.5262    5.2752   57.4981 H       1  ZINC000888733009    0.0900
     45 H45        -3.8255    4.5126   58.4664 H       1  ZINC000888733009    0.0700
@<TRIPOS>BOND
     1     1     2    1
     2     1    27    1
     3     1    28    1
     4     1    29    1
     5     2     3    1
     6     2    26    1
     7     2     4    1
     8     4     5    1
     9     4    30    1
    10     4    31    1
    11     5    24    1
    12     5     6    1
    13     5    25    1
    14     6     7    1
    15     6    32    1
    16     6    33    1
    17     7     8    1
    18     7    24    1
    19     7    34    1
    20     8     9   am
    21     8    35    1
    22     9    10    2
    23     9    11    1
    24    11    23    1
    25    11    12    2
    26    12    13    1
    27    12    21    1
    28    13    14   am
    29    13    36    1
    30    14    15    2
    31    14    16    1
    32    16    20    1
    33    16    17    2
    34    17    18    1
    35    17    37    1
    36    18    19    2
    37    18    38    1
    38    19    20    1
    39    19    39    1
    40    21    22    1
    41    22    23    2
    42    22    40    1
    43    23    41    1
    44    24    42    1
    45    24    43    1
    46    25    26    1
    47    25    44    1
    48    25    45    1
@<TRIPOS>SUBSTRUCTURE
     1 ZINC000888733009        1 TEMP              0 ****  ****    0 ROOT


##########                                Name:    ZINC001045463759
##########                DOCK_Rotatable_Bonds:                   6
##########                         Heavy_Atoms:                  24
##########                    Molecular_Weight:             336.385
##########                DOCK_Rotatable_Bonds:                   6
##########                       Formal_Charge:          1.3411e-07
##########                     HBond_Acceptors:                   7
##########                        HBond_Donors:                   2
##########                         Heavy_Atoms:                  24
##########                          Grid_Score:          -33.357357
##########                     Grid_vdw_energy:          -31.914757
##########                      Grid_es_energy:           -1.442599
##########           Internal_energy_repulsive:           14.402062

@<TRIPOS>MOLECULE
ZINC001045463759
 46 49 1 0 0
SMALL
USER_CHARGES


@<TRIPOS>ATOM
      1 O1         -0.8875    1.1275   50.2292 O.2     1  ZINC001045463759   -0.5100
      2 C2         -1.0004    2.2038   49.6815 C.2     1  ZINC001045463759    0.5400
      3 N3         -2.1603    2.8848   49.7666 N.am    1  ZINC001045463759   -0.7200
      4 C4         -3.2868    2.3223   50.5154 C.3     1  ZINC001045463759    0.1400
      5 H5         -2.9286    1.9203   51.4632 H       1  ZINC001045463759    0.1000
      6 C6         -3.9338    1.2022   49.6984 C.3     1  ZINC001045463759   -0.1300
      7 C7         -5.1103    0.6146   50.4805 C.3     1  ZINC001045463759   -0.1200
      8 C8         -6.1426    1.7115   50.7494 C.3     1  ZINC001045463759   -0.1200
      9 C9         -5.4956    2.8316   51.5664 C.3     1  ZINC001045463759   -0.1300
     10 C10        -4.3191    3.4191   50.7844 C.3     1  ZINC001045463759    0.1500
     11 H11        -4.6773    3.8210   49.8366 H       1  ZINC001045463759    0.0900
     12 N12        -3.6996    4.4916   51.5667 N.pl3   1  ZINC001045463759   -0.7100
     13 C13        -2.8041    4.1832   52.5778 C.ar    1  ZINC001045463759    0.4400
     14 C14        -1.4495    4.4940   52.4448 C.ar    1  ZINC001045463759   -0.3000
     15 C15        -0.5969    4.1661   53.4806 C.ar    1  ZINC001045463759    0.1800
     16 N16        -1.0880    3.5718   54.5589 N.ar    1  ZINC001045463759   -0.5600
     17 C17        -2.3721    3.2915   54.6541 C.ar    1  ZINC001045463759    0.4000
     18 C18        -2.8840    2.6151   55.8998 C.3     1  ZINC001045463759   -0.1100
     19 C19        -3.1018    3.4868   57.1382 C.3     1  ZINC001045463759   -0.1500
     20 C20        -4.3043    2.9554   56.3556 C.3     1  ZINC001045463759   -0.1500
     21 N21        -3.2220    3.5912   53.6929 N.ar    1  ZINC001045463759   -0.5700
     22 C22         0.1584    2.7825   48.9112 C.3     1  ZINC001045463759   -0.2000
     23 H23        -0.0190    2.9472   47.8484 H       1  ZINC001045463759    0.1500
     24 C24         1.0636    3.7784   49.6390 C.3     1  ZINC001045463759   -0.1500
     25 C25         1.5678    2.3652   49.3358 C.3     1  ZINC001045463759    0.2300
     26 F26         1.6823    1.4760   50.4098 F       1  ZINC001045463759   -0.1400
     27 F27         2.5304    2.2247   48.3305 F       1  ZINC001045463759   -0.1500
     28 H28        -2.2493    3.7474   49.3320 H       1  ZINC001045463759    0.4000
     29 H29        -4.2921    1.6041   48.7507 H       1  ZINC001045463759    0.0700
     30 H30        -3.1984    0.4207   49.5069 H       1  ZINC001045463759    0.0800
     31 H31        -5.5713   -0.1834   49.8985 H       1  ZINC001045463759    0.0700
     32 H32        -4.7521    0.2126   51.4282 H       1  ZINC001045463759    0.0700
     33 H33        -6.5008    2.1134   49.8017 H       1  ZINC001045463759    0.0700
     34 H34        -6.9807    1.2929   51.3065 H       1  ZINC001045463759    0.0700
     35 H35        -6.2309    3.6130   51.7580 H       1  ZINC001045463759    0.0700
     36 H36        -5.1373    2.4296   52.5141 H       1  ZINC001045463759    0.0700
     37 H37        -3.9164    5.4178   51.3767 H       1  ZINC001045463759    0.4100
     38 H38        -1.0775    4.9784   51.5539 H       1  ZINC001045463759    0.1400
     39 H39         0.4573    4.3908   53.4129 H       1  ZINC001045463759    0.1700
     40 H40        -2.5359    1.5944   56.0573 H       1  ZINC001045463759    0.1300
     41 H41        -2.8968    3.0395   58.1109 H       1  ZINC001045463759    0.1000
     42 H42        -2.8748    4.5494   57.0519 H       1  ZINC001045463759    0.1100
     43 H43        -4.8685    3.6685   55.7545 H       1  ZINC001045463759    0.1000
     44 H44        -4.8905    2.1586   56.8133 H       1  ZINC001045463759    0.1000
     45 H45         1.4820    4.5980   49.0549 H       1  ZINC001045463759    0.1400
     46 H46         0.8210    4.0150   50.6749 H       1  ZINC001045463759    0.1300
@<TRIPOS>BOND
     1     1     2    2
     2     2     3   am
     3     2    22    1
     4     3     4    1
     5     3    28    1
     6     4     5    1
     7     4    10    1
     8     4     6    1
     9     6     7    1
    10     6    29    1
    11     6    30    1
    12     7     8    1
    13     7    31    1
    14     7    32    1
    15     8     9    1
    16     8    33    1
    17     8    34    1
    18     9    10    1
    19     9    35    1
    20     9    36    1
    21    10    11    1
    22    10    12    1
    23    12    13    1
    24    12    37    1
    25    13    21   ar
    26    13    14   ar
    27    14    15   ar
    28    14    38    1
    29    15    16   ar
    30    15    39    1
    31    16    17   ar
    32    17    18    1
    33    17    21   ar
    34    18    20    1
    35    18    19    1
    36    18    40    1
    37    19    20    1
    38    19    41    1
    39    19    42    1
    40    20    43    1
    41    20    44    1
    42    22    23    1
    43    22    25    1
    44    22    24    1
    45    24    25    1
    46    24    45    1
    47    24    46    1
    48    25    26    1
    49    25    27    1
@<TRIPOS>SUBSTRUCTURE
     1 ZINC001045463759        1 TEMP              0 ****  ****    0 ROOT


##########                                Name:    ZINC000549659617
##########                DOCK_Rotatable_Bonds:                   9
##########                         Heavy_Atoms:                  28
##########                    Molecular_Weight:              418.48
##########                DOCK_Rotatable_Bonds:                   9
##########                       Formal_Charge:          0.00999956
##########                     HBond_Acceptors:                   9
##########                        HBond_Donors:                   1
##########                         Heavy_Atoms:                  28
##########                          Grid_Score:          -33.283169
##########                     Grid_vdw_energy:          -32.299580
##########                      Grid_es_energy:           -0.983590
##########           Internal_energy_repulsive:           27.854322

@<TRIPOS>MOLECULE
ZINC000549659617
 53 55 1 0 0
SMALL
USER_CHARGES


@<TRIPOS>ATOM
      1 C1         -5.2122    1.1713   50.3405 C.3     1  ZINC000549659617   -0.1500
      2 C2         -6.5999    0.6253   50.6830 C.3     1  ZINC000549659617   -0.1500
      3 C3         -6.7353    0.4929   52.2012 C.3     1  ZINC000549659617    0.1100
      4 N4         -8.1517    0.5462   52.5715 N.am    1  ZINC000549659617   -0.6100
      5 C5         -8.9288   -0.5449   52.4226 C.2     1  ZINC000549659617    0.7100
      6 O6         -8.4547   -1.5730   51.9794 O.2     1  ZINC000549659617   -0.5700
      7 N7        -10.2315   -0.4963   52.7649 N.am    1  ZINC000549659617   -0.7400
      8 C8        -11.0765   -1.6818   52.6015 C.3     1  ZINC000549659617    0.2300
      9 H9        -10.4809   -2.4994   52.1952 H       1  ZINC000549659617    0.1100
     10 C10       -11.6384   -2.0866   53.9400 C.ar    1  ZINC000549659617   -0.0900
     11 C11       -11.3234   -1.3570   55.0708 C.ar    1  ZINC000549659617   -0.0800
     12 C12       -11.8390   -1.7283   56.2988 C.ar    1  ZINC000549659617   -0.1100
     13 C13       -12.6697   -2.8287   56.3954 C.ar    1  ZINC000549659617   -0.0700
     14 C14       -12.9855   -3.5580   55.2640 C.ar    1  ZINC000549659617   -0.1800
     15 C15       -13.8908   -4.7581   55.3694 C.3     1  ZINC000549659617    0.5100
     16 F16       -15.2196   -4.3566   55.1947 F       1  ZINC000549659617   -0.1800
     17 F17       -13.5505   -5.6872   54.3803 F       1  ZINC000549659617   -0.1700
     18 F18       -13.7429   -5.3445   56.6308 F       1  ZINC000549659617   -0.1700
     19 C19       -12.4735   -3.1843   54.0358 C.ar    1  ZINC000549659617   -0.0500
     20 C20       -12.2245   -1.3615   51.6421 C.3     1  ZINC000549659617   -0.1700
     21 C21       -13.5397   -0.8731   52.2525 C.3     1  ZINC000549659617   -0.1700
     22 C22       -12.6366    0.1050   51.4984 C.3     1  ZINC000549659617   -0.1800
     23 C23        -8.7235    1.7855   53.1039 C.3     1  ZINC000549659617    0.1700
     24 H24        -9.8022    1.6795   53.2187 H       1  ZINC000549659617    0.1100
     25 C25        -8.4067    2.9596   52.1611 C.3     1  ZINC000549659617   -0.1400
     26 C26        -8.7119    4.2800   52.8960 C.3     1  ZINC000549659617   -0.5900
     27 S27        -8.4746    3.9033   54.6701 S.o2    1  ZINC000549659617    2.3900
     28 O28        -7.3284    4.5934   55.1489 O.2     1  ZINC000549659617   -0.9300
     29 O29        -9.7155    4.0356   55.3498 O.2     1  ZINC000549659617   -0.9400
     30 C30        -8.0750    2.1253   54.4706 C.3     1  ZINC000549659617   -0.6100
     31 H31        -5.1156    1.2656   49.2589 H       1  ZINC000549659617    0.0600
     32 H32        -5.0821    2.1493   50.8036 H       1  ZINC000549659617    0.0600
     33 H33        -4.4502    0.4877   50.7150 H       1  ZINC000549659617    0.0600
     34 H34        -7.3618    1.3089   50.3084 H       1  ZINC000549659617    0.0700
     35 H35        -6.7299   -0.3528   50.2198 H       1  ZINC000549659617    0.0700
     36 H36        -6.3114   -0.4586   52.5222 H       1  ZINC000549659617    0.0800
     37 H37        -6.2020    1.3105   52.6863 H       1  ZINC000549659617    0.0900
     38 H38       -10.6095    0.3236   53.1197 H       1  ZINC000549659617    0.4000
     39 H39       -10.6743   -0.4972   54.9953 H       1  ZINC000549659617    0.1300
     40 H40       -11.5923   -1.1587   57.1825 H       1  ZINC000549659617    0.1400
     41 H41       -13.0718   -3.1192   57.3547 H       1  ZINC000549659617    0.1400
     42 H42       -12.7202   -3.7539   53.1520 H       1  ZINC000549659617    0.1400
     43 H43       -12.2844   -1.9904   50.7540 H       1  ZINC000549659617    0.1100
     44 H44       -14.4653   -1.1810   51.7659 H       1  ZINC000549659617    0.0900
     45 H45       -13.5872   -0.7801   53.3375 H       1  ZINC000549659617    0.0900
     46 H46       -12.0899    0.8414   52.0873 H       1  ZINC000549659617    0.1200
     47 H47       -12.9679    0.4406   50.5157 H       1  ZINC000549659617    0.0900
     48 H48        -7.3537    2.9310   51.8812 H       1  ZINC000549659617    0.1100
     49 H49        -9.0241    2.8875   51.2657 H       1  ZINC000549659617    0.0900
     50 H50        -8.0187    5.0590   52.5785 H       1  ZINC000549659617    0.1400
     51 H51        -9.7405    4.5884   52.7089 H       1  ZINC000549659617    0.1400
     52 H52        -8.5237    1.5357   55.2702 H       1  ZINC000549659617    0.1400
     53 H53        -6.9963    1.9729   54.4348 H       1  ZINC000549659617    0.1600
@<TRIPOS>BOND
     1     1     2    1
     2     1    31    1
     3     1    32    1
     4     1    33    1
     5     2     3    1
     6     2    34    1
     7     2    35    1
     8     3     4    1
     9     3    36    1
    10     3    37    1
    11     4     5   am
    12     4    23    1
    13     5     6    2
    14     5     7   am
    15     7     8    1
    16     7    38    1
    17     8     9    1
    18     8    10    1
    19     8    20    1
    20    10    19   ar
    21    10    11   ar
    22    11    12   ar
    23    11    39    1
    24    12    13   ar
    25    12    40    1
    26    13    14   ar
    27    13    41    1
    28    14    15    1
    29    14    19   ar
    30    15    16    1
    31    15    17    1
    32    15    18    1
    33    19    42    1
    34    20    22    1
    35    20    21    1
    36    20    43    1
    37    21    22    1
    38    21    44    1
    39    21    45    1
    40    22    46    1
    41    22    47    1
    42    23    24    1
    43    23    30    1
    44    23    25    1
    45    25    26    1
    46    25    48    1
    47    25    49    1
    48    26    27    1
    49    26    50    1
    50    26    51    1
    51    27    28    2
    52    27    29    2
    53    27    30    1
    54    30    52    1
    55    30    53    1
@<TRIPOS>SUBSTRUCTURE
     1 ZINC000549659617        1 TEMP              0 ****  ****    0 ROOT


##########                                Name:    ZINC000859202493
##########                DOCK_Rotatable_Bonds:                  11
##########                         Heavy_Atoms:                  25
##########                    Molecular_Weight:             382.404
##########                DOCK_Rotatable_Bonds:                  11
##########                       Formal_Charge:          -0.0200009
##########                     HBond_Acceptors:                  10
##########                        HBond_Donors:                   3
##########                         Heavy_Atoms:                  25
##########                          Grid_Score:          -33.271713
##########                     Grid_vdw_energy:          -30.504196
##########                      Grid_es_energy:           -2.767518
##########           Internal_energy_repulsive:           11.850742

@<TRIPOS>MOLECULE
ZINC000859202493
 46 46 1 0 0
SMALL
USER_CHARGES


@<TRIPOS>ATOM
      1 C1         -9.8811    1.0599   55.8032 C.3     1  ZINC000859202493   -0.1500
      2 C2        -11.1871    0.5798   55.1672 C.3     1  ZINC000859202493   -0.1200
      3 C3        -11.0261   -0.8694   54.7038 C.3     1  ZINC000859202493   -0.1000
      4 H4        -10.5005   -1.4395   55.4698 H       1  ZINC000859202493    0.0700
      5 C5        -10.2227   -0.9024   53.4022 C.3     1  ZINC000859202493   -0.1600
      6 C6        -12.4064   -1.4854   54.4669 C.3     1  ZINC000859202493   -0.1200
      7 C7        -12.4147   -2.9288   54.9743 C.3     1  ZINC000859202493    0.1600
      8 H8        -11.4224   -3.1905   55.3415 H       1  ZINC000859202493    0.1000
      9 C9        -12.7996   -3.8694   53.8305 C.3     1  ZINC000859202493    0.0500
     10 O10       -11.6472   -4.1439   53.0313 O.3     1  ZINC000859202493   -0.5700
     11 N11       -13.3878   -3.0586   56.0616 N.am    1  ZINC000859202493   -1.1000
     12 S12       -13.0857   -4.0859   57.3250 S.o2    1  ZINC000859202493    2.6900
     13 O13       -14.1245   -3.8745   58.2712 O.2     1  ZINC000859202493   -0.9500
     14 O14       -12.8031   -5.3549   56.7515 O.2     1  ZINC000859202493   -0.9500
     15 C15       -11.5953   -3.5439   58.0929 C.ar    1  ZINC000859202493   -0.6600
     16 C16       -10.5632   -4.4389   58.3060 C.ar    1  ZINC000859202493   -0.0300
     17 C17        -9.3920   -4.0176   58.9089 C.ar    1  ZINC000859202493   -0.1100
     18 C18        -9.2498   -2.7007   59.2995 C.ar    1  ZINC000859202493   -0.0600
     19 C19       -10.2845   -1.7990   59.0865 C.ar    1  ZINC000859202493    0.1200
     20 N20       -10.1433   -0.4639   59.4808 N.am    1  ZINC000859202493   -0.6500
     21 C21       -10.8101   -0.0054   60.5586 C.2     1  ZINC000859202493    0.4800
     22 O22       -11.5325   -0.7501   61.1868 O.2     1  ZINC000859202493   -0.4500
     23 C23       -10.6580    1.4324   60.9832 C.3     1  ZINC000859202493    0.4600
     24 F24        -9.3613    1.6418   61.4648 F       1  ZINC000859202493   -0.1500
     25 F25       -10.8889    2.2695   59.8864 F       1  ZINC000859202493   -0.1600
     26 F26       -11.5826    1.7209   61.9927 F       1  ZINC000859202493   -0.1600
     27 C27       -11.4571   -2.2240   58.4762 C.ar    1  ZINC000859202493   -0.0300
     28 H28        -9.9958    2.0923   56.1333 H       1  ZINC000859202493    0.0500
     29 H29        -9.6405    0.4294   56.6592 H       1  ZINC000859202493    0.0500
     30 H30        -9.0765    1.0001   55.0703 H       1  ZINC000859202493    0.0600
     31 H31       -11.9917    0.6396   55.9002 H       1  ZINC000859202493    0.0600
     32 H32       -11.4278    1.2103   54.3113 H       1  ZINC000859202493    0.0600
     33 H33       -10.1081   -1.9349   53.0720 H       1  ZINC000859202493    0.0500
     34 H34       -10.7484   -0.3323   52.6362 H       1  ZINC000859202493    0.0600
     35 H35        -9.2394   -0.4636   53.5710 H       1  ZINC000859202493    0.0600
     36 H36       -13.1592   -0.9075   55.0030 H       1  ZINC000859202493    0.0800
     37 H37       -12.6313   -1.4739   53.4003 H       1  ZINC000859202493    0.0800
     38 H38       -13.1873   -4.8015   54.2414 H       1  ZINC000859202493    0.0600
     39 H39       -13.5651   -3.3978   53.2143 H       1  ZINC000859202493    0.0600
     40 H40       -11.2025   -3.3529   52.6975 H       1  ZINC000859202493    0.3800
     41 H41       -14.2091   -2.5428   56.0417 H       1  ZINC000859202493    0.4200
     42 H42       -10.6720   -5.4692   58.0014 H       1  ZINC000859202493    0.1500
     43 H43        -8.5879   -4.7193   59.0746 H       1  ZINC000859202493    0.1400
     44 H44        -8.3351   -2.3724   59.7706 H       1  ZINC000859202493    0.1400
     45 H45        -9.5655    0.1316   58.9785 H       1  ZINC000859202493    0.4200
     46 H46       -12.2635   -1.5253   58.3092 H       1  ZINC000859202493    0.1500
@<TRIPOS>BOND
     1     1     2    1
     2     1    28    1
     3     1    29    1
     4     1    30    1
     5     2     3    1
     6     2    31    1
     7     2    32    1
     8     3     4    1
     9     3     5    1
    10     3     6    1
    11     5    33    1
    12     5    34    1
    13     5    35    1
    14     6     7    1
    15     6    36    1
    16     6    37    1
    17     7     8    1
    18     7     9    1
    19     7    11    1
    20     9    10    1
    21     9    38    1
    22     9    39    1
    23    10    40    1
    24    11    12   am
    25    11    41    1
    26    12    13    2
    27    12    14    2
    28    12    15    1
    29    15    27   ar
    30    15    16   ar
    31    16    17   ar
    32    16    42    1
    33    17    18   ar
    34    17    43    1
    35    18    19   ar
    36    18    44    1
    37    19    20    1
    38    19    27   ar
    39    20    21   am
    40    20    45    1
    41    21    22    2
    42    21    23    1
    43    23    24    1
    44    23    25    1
    45    23    26    1
    46    27    46    1
@<TRIPOS>SUBSTRUCTURE
     1 ZINC000859202493        1 TEMP              0 ****  ****    0 ROOT


##########                                Name:    ZINC000004313955
##########                DOCK_Rotatable_Bonds:                   6
##########                         Heavy_Atoms:                  26
##########                    Molecular_Weight:             414.358
##########                DOCK_Rotatable_Bonds:                   6
##########                       Formal_Charge:           0.0299997
##########                     HBond_Acceptors:                   9
##########                        HBond_Donors:                   2
##########                         Heavy_Atoms:                  26
##########                          Grid_Score:          -33.270000
##########                     Grid_vdw_energy:          -29.505159
##########                      Grid_es_energy:           -3.764839
##########           Internal_energy_repulsive:           13.489578

@<TRIPOS>MOLECULE
ZINC000004313955
 47 49 1 0 0
SMALL
USER_CHARGES


@<TRIPOS>ATOM
      1 C1        -15.8861    0.2433   54.3797 C.3     1  ZINC000004313955   -0.1500
      2 C2        -14.8246   -0.0647   53.3217 C.3     1  ZINC000004313955   -0.1100
      3 H3        -13.9665    0.5919   53.4652 H       1  ZINC000004313955    0.0800
      4 C4        -15.4129    0.1611   51.9270 C.3     1  ZINC000004313955   -0.1100
      5 C5        -14.3422   -0.1151   50.8690 C.3     1  ZINC000004313955   -0.1100
      6 H6        -14.7551    0.0685   49.8770 H       1  ZINC000004313955    0.0900
      7 C7        -13.1440    0.8074   51.1021 C.3     1  ZINC000004313955   -0.1500
      8 C8        -13.8919   -1.5756   50.9730 C.3     1  ZINC000004313955    0.1200
      9 N9        -13.4597   -1.8400   52.3523 N.am    1  ZINC000004313955   -0.6000
     10 C10       -12.2424   -2.3615   52.6024 C.2     1  ZINC000004313955    0.5400
     11 O11       -11.4926   -2.6184   51.6844 O.2     1  ZINC000004313955   -0.5300
     12 C12       -11.8130   -2.6254   54.0226 C.3     1  ZINC000004313955   -0.1400
     13 S13       -11.1558   -1.1024   54.7470 S.3     1  ZINC000004313955    0.0800
     14 C14       -11.1114   -1.5663   56.4463 C.2     1  ZINC000004313955    0.1100
     15 N15       -11.5405   -2.6988   56.9567 N.2     1  ZINC000004313955   -0.2800
     16 N16       -11.3562   -2.7076   58.2284 N.2     1  ZINC000004313955   -0.2400
     17 C17       -10.7981   -1.5817   58.6083 C.2     1  ZINC000004313955    0.2500
     18 C18       -10.4268   -1.2073   59.9893 C.ar    1  ZINC000004313955   -0.0100
     19 C19       -11.1313   -0.2044   60.6567 C.ar    1  ZINC000004313955   -0.0700
     20 C20       -10.7802    0.1409   61.9453 C.ar    1  ZINC000004313955   -0.1100
     21 C21        -9.7309   -0.5049   62.5772 C.ar    1  ZINC000004313955   -0.0100
     22 Cl22       -9.2954   -0.0637   64.1988 Cl      1  ZINC000004313955   -0.0500
     23 C23        -9.0277   -1.5012   61.9213 C.ar    1  ZINC000004313955   -0.1100
     24 C24        -9.3730   -1.8598   60.6337 C.ar    1  ZINC000004313955    0.0100
     25 Cl25       -8.4907   -3.1090   59.8123 Cl      1  ZINC000004313955   -0.0100
     26 N26       -10.6192   -0.8183   57.4778 N.pl3   1  ZINC000004313955   -0.3000
     27 N27       -10.0710    0.4307   57.4035 N.3     1  ZINC000004313955   -0.5800
     28 C28       -14.3791   -1.5244   53.4541 C.3     1  ZINC000004313955    0.1100
     29 H29       -15.4670    0.0812   55.3728 H       1  ZINC000004313955    0.0600
     30 H30       -16.2035    1.2816   54.2843 H       1  ZINC000004313955    0.0600
     31 H31       -16.7439   -0.4136   54.2357 H       1  ZINC000004313955    0.0600
     32 H32       -16.2561   -0.5129   51.7751 H       1  ZINC000004313955    0.0700
     33 H33       -15.7529    1.1930   51.8391 H       1  ZINC000004313955    0.0700
     34 H34       -12.7308    0.6226   52.0938 H       1  ZINC000004313955    0.0600
     35 H35       -12.3818    0.6103   50.3484 H       1  ZINC000004313955    0.0600
     36 H36       -13.4659    1.8463   51.0305 H       1  ZINC000004313955    0.0600
     37 H37       -14.7229   -2.2332   50.7180 H       1  ZINC000004313955    0.0700
     38 H38       -13.0611   -1.7513   50.2897 H       1  ZINC000004313955    0.1000
     39 H39       -12.6704   -2.9639   54.6043 H       1  ZINC000004313955    0.1300
     40 H40       -11.0411   -3.3948   54.0318 H       1  ZINC000004313955    0.1300
     41 H41       -11.9496    0.3008   60.1651 H       1  ZINC000004313955    0.1600
     42 H42       -11.3250    0.9169   62.4625 H       1  ZINC000004313955    0.1500
     43 H43        -8.2103   -2.0012   62.4193 H       1  ZINC000004313955    0.1500
     44 H44       -10.7164    1.1295   57.7400 H       1  ZINC000004313955    0.3700
     45 H45        -9.1977    0.4728   57.9071 H       1  ZINC000004313955    0.3800
     46 H46       -13.8697   -1.6669   54.4071 H       1  ZINC000004313955    0.0900
     47 H47       -15.2501   -2.1777   53.4017 H       1  ZINC000004313955    0.0800
@<TRIPOS>BOND
     1     1     2    1
     2     1    29    1
     3     1    30    1
     4     1    31    1
     5     2     3    1
     6     2    28    1
     7     2     4    1
     8     4     5    1
     9     4    32    1
    10     4    33    1
    11     5     6    1
    12     5     7    1
    13     5     8    1
    14     7    34    1
    15     7    35    1
    16     7    36    1
    17     8     9    1
    18     8    37    1
    19     8    38    1
    20     9    10   am
    21     9    28    1
    22    10    11    2
    23    10    12    1
    24    12    13    1
    25    12    39    1
    26    12    40    1
    27    13    14    1
    28    14    26    1
    29    14    15    2
    30    15    16    1
    31    16    17    2
    32    17    18    1
    33    17    26    1
    34    18    24   ar
    35    18    19   ar
    36    19    20   ar
    37    19    41    1
    38    20    21   ar
    39    20    42    1
    40    21    22    1
    41    21    23   ar
    42    23    24   ar
    43    23    43    1
    44    24    25    1
    45    26    27    1
    46    27    44    1
    47    27    45    1
    48    28    46    1
    49    28    47    1
@<TRIPOS>SUBSTRUCTURE
     1 ZINC000004313955        1 TEMP              0 ****  ****    0 ROOT


##########                                Name:    ZINC000521663393
##########                DOCK_Rotatable_Bonds:                   5
##########                         Heavy_Atoms:                  27
##########                    Molecular_Weight:              386.49
##########                DOCK_Rotatable_Bonds:                   5
##########                       Formal_Charge:               -0.02
##########                     HBond_Acceptors:                   6
##########                        HBond_Donors:                   1
##########                         Heavy_Atoms:                  27
##########                          Grid_Score:          -33.227451
##########                     Grid_vdw_energy:          -32.167938
##########                      Grid_es_energy:           -1.059512
##########           Internal_energy_repulsive:           14.728036

@<TRIPOS>MOLECULE
ZINC000521663393
 50 53 1 0 0
SMALL
USER_CHARGES


@<TRIPOS>ATOM
      1 C1         -2.4129    1.9531   48.9904 C.3     1  ZINC000521663393   -0.1500
      2 C2         -3.1630    1.3775   50.1934 C.3     1  ZINC000521663393    0.0800
      3 H3         -2.4746    0.8695   50.8687 H       1  ZINC000521663393    0.0900
      4 O4         -4.2062    0.4862   49.7642 O.3     1  ZINC000521663393   -0.2900
      5 C5         -5.2574    0.5791   50.6241 C.ar    1  ZINC000521663393    0.1400
      6 C6         -6.3140   -0.3012   50.8402 C.ar    1  ZINC000521663393   -0.1800
      7 C7         -7.2919    0.0005   51.7688 C.ar    1  ZINC000521663393    0.1400
      8 F8         -8.3143   -0.8588   51.9721 F       1  ZINC000521663393   -0.1300
      9 C9         -7.2283    1.1796   52.4921 C.ar    1  ZINC000521663393   -0.1800
     10 C10        -6.1781    2.0562   52.2851 C.ar    1  ZINC000521663393   -0.0200
     11 C11        -5.2013    1.7550   51.3623 C.ar    1  ZINC000521663393   -0.2000
     12 C12        -3.9405    2.4889   50.9374 C.3     1  ZINC000521663393    0.1700
     13 H13        -4.1778    3.3147   50.2668 H       1  ZINC000521663393    0.1200
     14 N14        -3.1929    2.9638   52.1044 N.am    1  ZINC000521663393   -0.7200
     15 C15        -2.5868    4.1673   52.0723 C.2     1  ZINC000521663393    0.5300
     16 O16        -2.6616    4.8576   51.0780 O.2     1  ZINC000521663393   -0.5000
     17 C17        -1.8163    4.6550   53.2721 C.3     1  ZINC000521663393    0.1200
     18 H18        -1.5696    5.7087   53.1418 H       1  ZINC000521663393    0.0700
     19 C19        -2.6566    4.4853   54.5116 C.ar    1  ZINC000521663393   -0.0900
     20 C20        -3.4337    5.5333   54.9687 C.ar    1  ZINC000521663393   -0.0900
     21 C21        -4.2044    5.3777   56.1056 C.ar    1  ZINC000521663393   -0.1200
     22 C22        -4.1985    4.1740   56.7852 C.ar    1  ZINC000521663393   -0.1100
     23 C23        -3.4222    3.1257   56.3276 C.ar    1  ZINC000521663393   -0.1200
     24 C24        -2.6547    3.2800   55.1883 C.ar    1  ZINC000521663393   -0.1100
     25 N25        -0.5787    3.8757   53.4092 N.3     1  ZINC000521663393   -0.5300
     26 C26         0.2042    4.3317   54.5600 C.3     1  ZINC000521663393    0.0500
     27 C27         1.2295    3.2614   54.9494 C.3     1  ZINC000521663393   -0.0700
     28 S28         2.3681    3.0172   53.5521 S.3     1  ZINC000521663393   -0.2700
     29 C29         1.2154    2.7505   52.1705 C.3     1  ZINC000521663393   -0.0700
     30 C30         0.1920    3.8912   52.1638 C.3     1  ZINC000521663393    0.0600
     31 H31        -1.6746    2.6772   49.3351 H       1  ZINC000521663393    0.0800
     32 H32        -1.9097    1.1471   48.4565 H       1  ZINC000521663393    0.0800
     33 H33        -3.1202    2.4451   48.3228 H       1  ZINC000521663393    0.0700
     34 H34        -6.3698   -1.2228   50.2799 H       1  ZINC000521663393    0.1400
     35 H35        -7.9958    1.4142   53.2149 H       1  ZINC000521663393    0.1400
     36 H36        -6.1244    2.9768   52.8472 H       1  ZINC000521663393    0.1300
     37 H37        -3.1341    2.4123   52.9001 H       1  ZINC000521663393    0.4000
     38 H38        -3.4382    6.4737   54.4377 H       1  ZINC000521663393    0.1300
     39 H39        -4.8109    6.1967   56.4631 H       1  ZINC000521663393    0.1300
     40 H40        -4.8001    4.0526   57.6738 H       1  ZINC000521663393    0.1200
     41 H41        -3.4173    2.1854   56.8588 H       1  ZINC000521663393    0.1300
     42 H42        -2.0482    2.4609   54.8308 H       1  ZINC000521663393    0.1200
     43 H43         0.7240    5.2543   54.3018 H       1  ZINC000521663393    0.0500
     44 H44        -0.4634    4.5170   55.4016 H       1  ZINC000521663393    0.1000
     45 H45         1.7892    3.5915   55.8245 H       1  ZINC000521663393    0.1100
     46 H46         0.7159    2.3259   55.1712 H       1  ZINC000521663393    0.0900
     47 H47         1.7659    2.7468   51.2298 H       1  ZINC000521663393    0.1100
     48 H48         0.7014    1.7982   52.3011 H       1  ZINC000521663393    0.1000
     49 H49        -0.4841    3.7662   51.3179 H       1  ZINC000521663393    0.0800
     50 H50         0.7127    4.8443   52.0719 H       1  ZINC000521663393    0.0500
@<TRIPOS>BOND
     1     1     2    1
     2     1    31    1
     3     1    32    1
     4     1    33    1
     5     2     3    1
     6     2    12    1
     7     2     4    1
     8     4     5    1
     9     5    11   ar
    10     5     6   ar
    11     6     7   ar
    12     6    34    1
    13     7     8    1
    14     7     9   ar
    15     9    10   ar
    16     9    35    1
    17    10    11   ar
    18    10    36    1
    19    11    12    1
    20    12    13    1
    21    12    14    1
    22    14    15   am
    23    14    37    1
    24    15    16    2
    25    15    17    1
    26    17    18    1
    27    17    19    1
    28    17    25    1
    29    19    24   ar
    30    19    20   ar
    31    20    21   ar
    32    20    38    1
    33    21    22   ar
    34    21    39    1
    35    22    23   ar
    36    22    40    1
    37    23    24   ar
    38    23    41    1
    39    24    42    1
    40    25    30    1
    41    25    26    1
    42    26    27    1
    43    26    43    1
    44    26    44    1
    45    27    28    1
    46    27    45    1
    47    27    46    1
    48    28    29    1
    49    29    30    1
    50    29    47    1
    51    29    48    1
    52    30    49    1
    53    30    50    1
@<TRIPOS>SUBSTRUCTURE
     1 ZINC000521663393        1 TEMP              0 ****  ****    0 ROOT


##########                                Name:    ZINC000797321835
##########                DOCK_Rotatable_Bonds:                   4
##########                         Heavy_Atoms:                  22
##########                    Molecular_Weight:             381.253
##########                DOCK_Rotatable_Bonds:                   4
##########                       Formal_Charge:           0.0200001
##########                     HBond_Acceptors:                   7
##########                        HBond_Donors:                   1
##########                         Heavy_Atoms:                  22
##########                          Grid_Score:          -33.219543
##########                     Grid_vdw_energy:          -29.904972
##########                      Grid_es_energy:           -3.314570
##########           Internal_energy_repulsive:            3.109099

@<TRIPOS>MOLECULE
ZINC000797321835
 35 37 1 0 0
SMALL
USER_CHARGES


@<TRIPOS>ATOM
      1 C1          1.0511    3.4141   52.1103 C.3     1  ZINC000797321835    0.1000
      2 N2          1.2459    3.0562   50.7031 N.am    1  ZINC000797321835   -0.6000
      3 C3          2.4084    2.6247   50.1842 C.2     1  ZINC000797321835    0.5200
      4 O4          3.4384    2.4841   50.8090 O.2     1  ZINC000797321835   -0.5200
      5 C5          2.2450    2.3394   48.7076 C.3     1  ZINC000797321835   -0.1500
      6 C6          0.7141    2.2647   48.5030 C.3     1  ZINC000797321835   -0.1200
      7 C7          0.1953    3.1167   49.6801 C.3     1  ZINC000797321835    0.1200
      8 H8          0.0460    4.1485   49.3621 H       1  ZINC000797321835    0.1100
      9 C9         -1.0937    2.5436   50.2104 C.2     1  ZINC000797321835    0.4900
     10 O10        -1.0778    1.5324   50.8798 O.2     1  ZINC000797321835   -0.4400
     11 N11        -2.2642    3.1549   49.9406 N.am    1  ZINC000797321835   -0.6500
     12 C12        -3.4572    2.6245   50.4314 C.ar    1  ZINC000797321835    0.3000
     13 C13        -3.8960    2.9616   51.7124 C.ar    1  ZINC000797321835   -0.1400
     14 C14        -5.0847    2.4127   52.1578 C.ar    1  ZINC000797321835   -0.0800
     15 C15        -5.7745    1.5517   51.2941 C.ar    1  ZINC000797321835    0.1100
     16 C16        -7.0488    0.9389   51.7201 C.2     1  ZINC000797321835   -0.1400
     17 C17        -8.1660    1.6172   52.0527 C.2     1  ZINC000797321835   -0.0900
     18 C18        -9.2338    0.8253   52.4190 C.2     1  ZINC000797321835   -0.0900
     19 C19        -8.9989   -0.4913   52.3887 C.2     1  ZINC000797321835   -0.2000
     20 Br20      -10.2567   -1.8313   52.8341 Br      1  ZINC000797321835    0.0200
     21 S21        -7.3466   -0.7884   51.8651 S.3     1  ZINC000797321835    0.1900
     22 N22        -5.2777    1.2890   50.0901 N.ar    1  ZINC000797321835   -0.1900
     23 N23        -4.1765    1.8052   49.6798 N.ar    1  ZINC000797321835   -0.2200
     24 H24         0.7415    2.5316   52.6702 H       1  ZINC000797321835    0.0700
     25 H25         1.9860    3.7955   52.5210 H       1  ZINC000797321835    0.0800
     26 H26         0.2809    4.1816   52.1867 H       1  ZINC000797321835    0.0700
     27 H27         2.6703    3.1482   48.1134 H       1  ZINC000797321835    0.1100
     28 H28         2.7113    1.3888   48.4487 H       1  ZINC000797321835    0.1100
     29 H29         0.4267    2.7006   47.5461 H       1  ZINC000797321835    0.1100
     30 H30         0.3594    1.2373   48.5841 H       1  ZINC000797321835    0.0900
     31 H31        -2.2770    3.9637   49.4054 H       1  ZINC000797321835    0.4200
     32 H32        -3.3242    3.6313   52.3377 H       1  ZINC000797321835    0.1600
     33 H33        -5.4692    2.6405   53.1410 H       1  ZINC000797321835    0.1500
     34 H34        -8.2200    2.6957   52.0338 H       1  ZINC000797321835    0.1600
     35 H35       -10.1888    1.2375   52.7093 H       1  ZINC000797321835    0.1600
@<TRIPOS>BOND
     1     1     2    1
     2     1    24    1
     3     1    25    1
     4     1    26    1
     5     2     7    1
     6     2     3   am
     7     3     4    2
     8     3     5    1
     9     5     6    1
    10     5    27    1
    11     5    28    1
    12     6     7    1
    13     6    29    1
    14     6    30    1
    15     7     8    1
    16     7     9    1
    17     9    10    2
    18     9    11   am
    19    11    12    1
    20    11    31    1
    21    12    23   ar
    22    12    13   ar
    23    13    14   ar
    24    13    32    1
    25    14    15   ar
    26    14    33    1
    27    15    16    1
    28    15    22   ar
    29    16    21    1
    30    16    17    2
    31    17    18    1
    32    17    34    1
    33    18    19    2
    34    18    35    1
    35    19    20    1
    36    19    21    1
    37    22    23   ar
@<TRIPOS>SUBSTRUCTURE
     1 ZINC000797321835        1 TEMP              0 ****  ****    0 ROOT


##########                                Name:    ZINC000506156755
##########                DOCK_Rotatable_Bonds:                   7
##########                         Heavy_Atoms:                  30
##########                    Molecular_Weight:             400.434
##########                DOCK_Rotatable_Bonds:                   7
##########                       Formal_Charge:          -0.0200001
##########                     HBond_Acceptors:                   6
##########                        HBond_Donors:                   1
##########                         Heavy_Atoms:                  30
##########                          Grid_Score:          -33.175030
##########                     Grid_vdw_energy:          -32.310570
##########                      Grid_es_energy:           -0.864460
##########           Internal_energy_repulsive:           11.644268

@<TRIPOS>MOLECULE
ZINC000506156755
 50 53 1 0 0
SMALL
USER_CHARGES


@<TRIPOS>ATOM
      1 C1        -11.7761   -0.3133   53.2224 C.3     1  ZINC000506156755   -0.1600
      2 C2        -10.7025   -0.6582   54.2563 C.3     1  ZINC000506156755    0.1900
      3 H3         -9.9579   -1.3123   53.8027 H       1  ZINC000506156755    0.1000
      4 N4        -11.3225   -1.3400   55.3952 N.am    1  ZINC000506156755   -0.7200
      5 C5        -11.3355   -2.6866   55.4489 C.2     1  ZINC000506156755    0.5000
      6 O6        -10.8354   -3.3340   54.5535 O.2     1  ZINC000506156755   -0.5200
      7 C7        -11.9716   -3.3880   56.6213 C.3     1  ZINC000506156755    0.0900
      8 N8        -11.3860   -2.8862   57.8668 N.am    1  ZINC000506156755   -0.5600
      9 C9        -11.7622   -1.7501   58.4812 C.2     1  ZINC000506156755    0.5800
     10 O10       -12.6276   -0.9895   58.0971 O.2     1  ZINC000506156755   -0.4600
     11 C11       -10.9463   -1.5827   59.7024 C.ar    1  ZINC000506156755   -0.1400
     12 C12       -10.8885   -0.6273   60.7038 C.ar    1  ZINC000506156755   -0.0400
     13 C13        -9.9799   -0.7728   61.7410 C.ar    1  ZINC000506156755   -0.0900
     14 C14        -9.1326   -1.8636   61.7821 C.ar    1  ZINC000506156755   -0.0900
     15 C15        -9.1792   -2.8277   60.7867 C.ar    1  ZINC000506156755   -0.0400
     16 C16       -10.0818   -2.6955   59.7443 C.ar    1  ZINC000506156755   -0.1400
     17 C17       -10.4053   -3.5039   58.5497 C.2     1  ZINC000506156755    0.5800
     18 O18        -9.8734   -4.5497   58.2362 O.2     1  ZINC000506156755   -0.4600
     19 C19       -10.0366    0.6079   54.7305 C.ar    1  ZINC000506156755   -0.1200
     20 C20       -10.5943    1.3376   55.7620 C.ar    1  ZINC000506156755   -0.0800
     21 C21        -9.9837    2.4992   56.1980 C.ar    1  ZINC000506156755   -0.1400
     22 C22        -8.8136    2.9332   55.6029 C.ar    1  ZINC000506156755   -0.0800
     23 C23        -8.2515    2.2070   54.5708 C.ar    1  ZINC000506156755   -0.1900
     24 C24        -8.8594    1.0384   54.1350 C.ar    1  ZINC000506156755    0.1300
     25 O25        -8.3084    0.3220   53.1203 O.3     1  ZINC000506156755   -0.2500
     26 C26        -7.6869    1.0035   52.1224 C.ar    1  ZINC000506156755    0.0800
     27 C27        -6.3819    0.6874   51.7727 C.ar    1  ZINC000506156755   -0.1400
     28 C28        -5.7525    1.3818   50.7579 C.ar    1  ZINC000506156755   -0.1000
     29 C29        -6.4218    2.3912   50.0908 C.ar    1  ZINC000506156755   -0.1200
     30 C30        -7.7222    2.7083   50.4373 C.ar    1  ZINC000506156755   -0.1000
     31 C31        -8.3583    2.0131   51.4475 C.ar    1  ZINC000506156755   -0.1200
     32 H32       -12.2578   -1.2291   52.8794 H       1  ZINC000506156755    0.0700
     33 H33       -12.5207    0.3408   53.6760 H       1  ZINC000506156755    0.0600
     34 H34       -11.3149    0.1939   52.3750 H       1  ZINC000506156755    0.0700
     35 H35       -11.7235   -0.8222   56.1108 H       1  ZINC000506156755    0.4000
     36 H36       -13.0446   -3.1959   56.6210 H       1  ZINC000506156755    0.1300
     37 H37       -11.7946   -4.4606   56.5427 H       1  ZINC000506156755    0.1300
     38 H38       -11.5480    0.2275   60.6766 H       1  ZINC000506156755    0.1400
     39 H39        -9.9338   -0.0283   62.5220 H       1  ZINC000506156755    0.1400
     40 H40        -8.4288   -1.9657   62.5949 H       1  ZINC000506156755    0.1400
     41 H41        -8.5148   -3.6784   60.8242 H       1  ZINC000506156755    0.1400
     42 H42       -11.5085    1.0010   56.2284 H       1  ZINC000506156755    0.1300
     43 H43       -10.4217    3.0685   57.0044 H       1  ZINC000506156755    0.1300
     44 H44        -8.3387    3.8409   55.9450 H       1  ZINC000506156755    0.1300
     45 H45        -7.3377    2.5465   54.1060 H       1  ZINC000506156755    0.1300
     46 H46        -5.8586   -0.1008   52.2936 H       1  ZINC000506156755    0.1300
     47 H47        -4.7366    1.1362   50.4855 H       1  ZINC000506156755    0.1300
     48 H48        -5.9277    2.9332   49.2979 H       1  ZINC000506156755    0.1300
     49 H49        -8.2428    3.4972   49.9147 H       1  ZINC000506156755    0.1300
     50 H50        -9.3741    2.2609   51.7176 H       1  ZINC000506156755    0.1300
@<TRIPOS>BOND
     1     1     2    1
     2     1    32    1
     3     1    33    1
     4     1    34    1
     5     2     3    1
     6     2     4    1
     7     2    19    1
     8     4     5   am
     9     4    35    1
    10     5     6    2
    11     5     7    1
    12     7     8    1
    13     7    36    1
    14     7    37    1
    15     8    17   am
    16     8     9   am
    17     9    10    2
    18     9    11    1
    19    11    16   ar
    20    11    12   ar
    21    12    13   ar
    22    12    38    1
    23    13    14   ar
    24    13    39    1
    25    14    15   ar
    26    14    40    1
    27    15    16   ar
    28    15    41    1
    29    16    17    1
    30    17    18    2
    31    19    24   ar
    32    19    20   ar
    33    20    21   ar
    34    20    42    1
    35    21    22   ar
    36    21    43    1
    37    22    23   ar
    38    22    44    1
    39    23    24   ar
    40    23    45    1
    41    24    25    1
    42    25    26    1
    43    26    31   ar
    44    26    27   ar
    45    27    28   ar
    46    27    46    1
    47    28    29   ar
    48    28    47    1
    49    29    30   ar
    50    29    48    1
    51    30    31   ar
    52    30    49    1
    53    31    50    1
@<TRIPOS>SUBSTRUCTURE
     1 ZINC000506156755        1 TEMP              0 ****  ****    0 ROOT


##########                                Name:    ZINC000463741321
##########                DOCK_Rotatable_Bonds:                   7
##########                         Heavy_Atoms:                  26
##########                    Molecular_Weight:             354.467
##########                DOCK_Rotatable_Bonds:                   7
##########                       Formal_Charge:         -6.4075e-07
##########                     HBond_Acceptors:                   4
##########                        HBond_Donors:                   1
##########                         Heavy_Atoms:                  26
##########                          Grid_Score:          -33.173901
##########                     Grid_vdw_energy:          -30.549389
##########                      Grid_es_energy:           -2.624511
##########           Internal_energy_repulsive:           11.374155

@<TRIPOS>MOLECULE
ZINC000463741321
 53 55 1 0 0
SMALL
USER_CHARGES


@<TRIPOS>ATOM
      1 C1        -11.1269    2.5957   57.4563 C.3     1  ZINC000463741321   -0.1500
      2 C2        -10.6779    1.2888   56.7995 C.3     1  ZINC000463741321   -0.1100
      3 H3         -9.7619    0.9389   57.2755 H       1  ZINC000463741321    0.1000
      4 C4        -11.7731    0.2331   56.9633 C.3     1  ZINC000463741321   -0.0900
      5 C5        -11.7801   -0.2749   58.4064 C.3     1  ZINC000463741321   -0.0800
      6 C6        -11.0831   -1.6093   58.4726 C.ar    1  ZINC000463741321   -0.1200
      7 C7         -9.8592   -1.7191   59.1044 C.ar    1  ZINC000463741321   -0.0900
      8 C8         -9.2193   -2.9434   59.1653 C.ar    1  ZINC000463741321   -0.1300
      9 C9         -9.8029   -4.0585   58.5940 C.ar    1  ZINC000463741321   -0.1000
     10 C10       -11.0270   -3.9510   57.9611 C.ar    1  ZINC000463741321   -0.1500
     11 C11       -11.6716   -2.7271   57.9053 C.ar    1  ZINC000463741321    0.1000
     12 F12       -12.8681   -2.6209   57.2870 F       1  ZINC000463741321   -0.1400
     13 C13       -10.4232    1.5251   55.3331 C.2     1  ZINC000463741321    0.5200
     14 O14       -11.3035    1.3214   54.5241 O.2     1  ZINC000463741321   -0.5300
     15 N15        -9.2171    1.9629   54.9206 N.am    1  ZINC000463741321   -0.7300
     16 C16        -8.9689    2.1910   53.4948 C.3     1  ZINC000463741321    0.1500
     17 H17        -9.5679    1.4967   52.9056 H       1  ZINC000463741321    0.1000
     18 C18        -9.3502    3.6292   53.1333 C.3     1  ZINC000463741321   -0.1300
     19 C19        -9.0317    3.8773   51.6563 C.3     1  ZINC000463741321   -0.1200
     20 C20        -7.5458    3.6079   51.4076 C.3     1  ZINC000463741321    0.0600
     21 N21        -7.2319    2.2194   51.7680 N.3     1  ZINC000463741321   -0.4800
     22 C22        -5.9147    1.9003   51.4303 C.ar    1  ZINC000463741321    0.1100
     23 C23        -4.8654    2.6695   51.9171 C.ar    1  ZINC000463741321   -0.1700
     24 C24        -3.5641    2.3509   51.5818 C.ar    1  ZINC000463741321   -0.0900
     25 C25        -3.3051    1.2679   50.7619 C.ar    1  ZINC000463741321   -0.1500
     26 C26        -4.3473    0.5000   50.2756 C.ar    1  ZINC000463741321   -0.0900
     27 C27        -5.6506    0.8096   50.6116 C.ar    1  ZINC000463741321   -0.1400
     28 C28        -7.4851    1.9695   53.1927 C.3     1  ZINC000463741321    0.0500
     29 H29       -12.0429    2.9457   56.9802 H       1  ZINC000463741321    0.0600
     30 H30       -11.3111    2.4248   58.5169 H       1  ZINC000463741321    0.0700
     31 H31       -10.3466    3.3478   57.3396 H       1  ZINC000463741321    0.0600
     32 H32       -12.7417    0.6750   56.7290 H       1  ZINC000463741321    0.0700
     33 H33       -11.5800   -0.5988   56.2860 H       1  ZINC000463741321    0.0700
     34 H34       -11.2600    0.4388   59.0453 H       1  ZINC000463741321    0.0800
     35 H35       -12.8093   -0.3852   58.7478 H       1  ZINC000463741321    0.0800
     36 H36        -9.4019   -0.8484   59.5504 H       1  ZINC000463741321    0.1300
     37 H37        -8.2627   -3.0282   59.6592 H       1  ZINC000463741321    0.1300
     38 H38        -9.3020   -5.0142   58.6418 H       1  ZINC000463741321    0.1300
     39 H39       -11.4824   -4.8224   57.5142 H       1  ZINC000463741321    0.1400
     40 H40        -8.5134    2.1270   55.5677 H       1  ZINC000463741321    0.4000
     41 H41       -10.4160    3.7779   53.3061 H       1  ZINC000463741321    0.0700
     42 H42        -8.7797    4.3234   53.7504 H       1  ZINC000463741321    0.0600
     43 H43        -9.6312    3.2095   51.0376 H       1  ZINC000463741321    0.0800
     44 H44        -9.2611    4.9125   51.4034 H       1  ZINC000463741321    0.0800
     45 H45        -7.3188    3.7698   50.3539 H       1  ZINC000463741321    0.0900
     46 H46        -6.9470    4.2854   52.0162 H       1  ZINC000463741321    0.0500
     47 H47        -5.0671    3.5159   52.5569 H       1  ZINC000463741321    0.1200
     48 H48        -2.7479    2.9485   51.9599 H       1  ZINC000463741321    0.1200
     49 H49        -2.2866    1.0214   50.5006 H       1  ZINC000463741321    0.1200
     50 H50        -4.1415   -0.3453   49.6354 H       1  ZINC000463741321    0.1200
     51 H51        -6.4640    0.2093   50.2317 H       1  ZINC000463741321    0.1300
     52 H52        -6.8868    2.6544   53.7935 H       1  ZINC000463741321    0.0500
     53 H53        -7.2137    0.9420   53.4351 H       1  ZINC000463741321    0.0900
@<TRIPOS>BOND
     1     1     2    1
     2     1    29    1
     3     1    30    1
     4     1    31    1
     5     2     3    1
     6     2     4    1
     7     2    13    1
     8     4     5    1
     9     4    32    1
    10     4    33    1
    11     5     6    1
    12     5    34    1
    13     5    35    1
    14     6    11   ar
    15     6     7   ar
    16     7     8   ar
    17     7    36    1
    18     8     9   ar
    19     8    37    1
    20     9    10   ar
    21     9    38    1
    22    10    11   ar
    23    10    39    1
    24    11    12    1
    25    13    14    2
    26    13    15   am
    27    15    16    1
    28    15    40    1
    29    16    17    1
    30    16    28    1
    31    16    18    1
    32    18    19    1
    33    18    41    1
    34    18    42    1
    35    19    20    1
    36    19    43    1
    37    19    44    1
    38    20    21    1
    39    20    45    1
    40    20    46    1
    41    21    22    1
    42    21    28    1
    43    22    27   ar
    44    22    23   ar
    45    23    24   ar
    46    23    47    1
    47    24    25   ar
    48    24    48    1
    49    25    26   ar
    50    25    49    1
    51    26    27   ar
    52    26    50    1
    53    27    51    1
    54    28    52    1
    55    28    53    1
@<TRIPOS>SUBSTRUCTURE
     1 ZINC000463741321        1 TEMP              0 ****  ****    0 ROOT


##########                                Name:    ZINC000826052721
##########                DOCK_Rotatable_Bonds:                   3
##########                         Heavy_Atoms:                  29
##########                    Molecular_Weight:             393.399
##########                DOCK_Rotatable_Bonds:                   3
##########                       Formal_Charge:        -4.47035e-07
##########                     HBond_Acceptors:                   9
##########                        HBond_Donors:                   2
##########                         Heavy_Atoms:                  29
##########                          Grid_Score:          -33.169689
##########                     Grid_vdw_energy:          -25.650898
##########                      Grid_es_energy:           -7.518790
##########           Internal_energy_repulsive:           11.174774

@<TRIPOS>MOLECULE
ZINC000826052721
 46 50 1 0 0
SMALL
USER_CHARGES


@<TRIPOS>ATOM
      1 C1        -10.6979    2.0471   58.1544 C.3     1  ZINC000826052721   -0.0400
      2 N2        -10.3177    0.6715   58.5027 N.4     1  ZINC000826052721   -0.3800
      3 H3         -9.3151    0.5736   58.4456 H       1  ZINC000826052721    0.4300
      4 C4        -10.9557   -0.2643   57.5725 C.3     1  ZINC000826052721    0.0500
      5 C5        -10.7027   -1.6871   57.9960 C.ar    1  ZINC000826052721   -0.1300
      6 C6        -10.8787   -2.6977   57.0630 C.ar    1  ZINC000826052721   -0.1000
      7 C7        -10.6627   -4.0157   57.4131 C.ar    1  ZINC000826052721   -0.1000
      8 C8        -10.2691   -4.3310   58.7000 C.ar    1  ZINC000826052721   -0.0800
      9 C9        -10.0919   -3.3257   59.6301 C.ar    1  ZINC000826052721   -0.0800
     10 C10       -10.3074   -2.0025   59.2790 C.ar    1  ZINC000826052721   -0.1200
     11 C11       -10.0999   -0.9345   60.3223 C.3     1  ZINC000826052721    0.1100
     12 H12        -9.0319   -0.7656   60.4605 H       1  ZINC000826052721    0.1100
     13 N13       -10.6939   -1.3708   61.5929 N.3     1  ZINC000826052721   -0.6200
     14 C14       -11.2380   -0.3007   62.2787 C.ar    1  ZINC000826052721    0.1600
     15 C15       -12.6019   -0.0023   62.1880 C.ar    1  ZINC000826052721   -0.0400
     16 C16       -13.4928   -0.8319   61.3509 C.2     1  ZINC000826052721    0.0700
     17 N17       -14.3233   -0.4019   60.3980 N.2     1  ZINC000826052721   -0.3800
     18 N18       -14.9156   -1.4357   59.9054 N.2     1  ZINC000826052721   -0.1600
     19 N19       -14.5013   -2.4924   60.5119 N.2     1  ZINC000826052721   -0.1700
     20 N20       -13.6304   -2.1591   61.4021 N.pl3   1  ZINC000826052721   -0.3400
     21 C21       -13.1159    1.0890   62.9030 C.ar    1  ZINC000826052721    0.1800
     22 N22       -12.3494    1.8445   63.6484 N.ar    1  ZINC000826052721   -0.4700
     23 C23       -11.0353    1.6158   63.7737 C.ar    1  ZINC000826052721    0.0900
     24 C24       -10.2345    2.4448   64.5802 C.ar    1  ZINC000826052721    0.1700
     25 F25       -10.7871    3.4852   65.2414 F       1  ZINC000826052721   -0.1100
     26 C26        -8.8987    2.1942   64.6934 C.ar    1  ZINC000826052721   -0.1900
     27 C27        -8.3095    1.1260   64.0195 C.ar    1  ZINC000826052721    0.1300
     28 F28        -6.9834    0.9033   64.1509 F       1  ZINC000826052721   -0.1300
     29 C29        -9.0568    0.3024   63.2280 C.ar    1  ZINC000826052721   -0.1500
     30 C30       -10.4329    0.5324   63.0910 C.ar    1  ZINC000826052721   -0.0600
     31 C31       -10.7658    0.3657   59.8696 C.3     1  ZINC000826052721    0.0000
     32 H32       -11.7808    2.1524   58.2200 H       1  ZINC000826052721    0.1200
     33 H33       -10.2226    2.7419   58.8469 H       1  ZINC000826052721    0.1300
     34 H34       -10.3722    2.2676   57.1379 H       1  ZINC000826052721    0.1200
     35 H35       -10.5507   -0.1094   56.5724 H       1  ZINC000826052721    0.1400
     36 H36       -12.0298   -0.0795   57.5570 H       1  ZINC000826052721    0.1400
     37 H37       -11.1859   -2.4525   56.0571 H       1  ZINC000826052721    0.1300
     38 H38       -10.8009   -4.7990   56.6826 H       1  ZINC000826052721    0.1300
     39 H39       -10.1001   -5.3611   58.9773 H       1  ZINC000826052721    0.1300
     40 H40        -9.7836   -3.5717   60.6355 H       1  ZINC000826052721    0.1400
     41 H41       -10.0165   -1.8573   62.1606 H       1  ZINC000826052721    0.4100
     42 H42       -14.1699    1.3143   62.8336 H       1  ZINC000826052721    0.1800
     43 H43        -8.2883    2.8333   65.3141 H       1  ZINC000826052721    0.1600
     44 H44        -8.5901   -0.5223   62.7096 H       1  ZINC000826052721    0.1400
     45 H45       -11.8490    0.2456   59.8822 H       1  ZINC000826052721    0.1400
     46 H46       -10.4771    1.1767   60.5383 H       1  ZINC000826052721    0.1400
@<TRIPOS>BOND
     1     1     2    1
     2     1    32    1
     3     1    33    1
     4     1    34    1
     5     2     3    1
     6     2    31    1
     7     2     4    1
     8     4     5    1
     9     4    35    1
    10     4    36    1
    11     5    10   ar
    12     5     6   ar
    13     6     7   ar
    14     6    37    1
    15     7     8   ar
    16     7    38    1
    17     8     9   ar
    18     8    39    1
    19     9    10   ar
    20     9    40    1
    21    10    11    1
    22    11    12    1
    23    11    13    1
    24    11    31    1
    25    13    14    1
    26    13    41    1
    27    14    30   ar
    28    14    15   ar
    29    15    16    1
    30    15    21   ar
    31    16    20    1
    32    16    17    2
    33    17    18    1
    34    18    19    2
    35    19    20    1
    36    21    22   ar
    37    21    42    1
    38    22    23   ar
    39    23    30   ar
    40    23    24   ar
    41    24    25    1
    42    24    26   ar
    43    26    27   ar
    44    26    43    1
    45    27    28    1
    46    27    29   ar
    47    29    30   ar
    48    29    44    1
    49    31    45    1
    50    31    46    1
@<TRIPOS>SUBSTRUCTURE
     1 ZINC000826052721        1 TEMP              0 ****  ****    0 ROOT


##########                                Name:    ZINC000437443367
##########                DOCK_Rotatable_Bonds:                   8
##########                         Heavy_Atoms:                  24
##########                    Molecular_Weight:             334.434
##########                DOCK_Rotatable_Bonds:                   8
##########                       Formal_Charge:          -0.0500003
##########                     HBond_Acceptors:                   5
##########                        HBond_Donors:                   1
##########                         Heavy_Atoms:                  24
##########                          Grid_Score:          -33.168266
##########                     Grid_vdw_energy:          -31.608696
##########                      Grid_es_energy:           -1.559571
##########           Internal_energy_repulsive:           36.514820

@<TRIPOS>MOLECULE
ZINC000437443367
 51 52 1 0 0
SMALL
USER_CHARGES


@<TRIPOS>ATOM
      1 C1          2.9747    3.0013   47.4881 C.3     1  ZINC000437443367   -0.1200
      2 C2          2.1310    2.3257   48.5382 C.ar    1  ZINC000437443367   -0.1000
      3 C3          0.7617    2.2490   48.3786 C.ar    1  ZINC000437443367   -0.1200
      4 C4         -0.0156    1.6260   49.3472 C.ar    1  ZINC000437443367    0.1400
      5 N5         -1.4023    1.5467   49.1876 N.am    1  ZINC000437443367   -0.6400
      6 C6         -2.1889    2.5523   49.6193 C.2     1  ZINC000437443367    0.5000
      7 O7         -1.6936    3.5269   50.1466 O.2     1  ZINC000437443367   -0.4800
      8 C8         -3.6703    2.4675   49.4487 C.2     1  ZINC000437443367    0.5100
      9 O9         -4.1519    2.4326   48.3354 O.2     1  ZINC000437443367   -0.5200
     10 N10        -4.4721    2.4296   50.5314 N.am    1  ZINC000437443367   -0.5700
     11 C11        -3.8907    2.4716   51.8755 C.3     1  ZINC000437443367    0.0900
     12 C12        -3.7060    3.9283   52.3059 C.3     1  ZINC000437443367   -0.1200
     13 C13        -3.7501    4.0184   53.8326 C.3     1  ZINC000437443367   -0.0900
     14 C14        -2.6278    3.1648   54.4265 C.3     1  ZINC000437443367   -0.1400
     15 C15        -3.5654    5.4749   54.2629 C.3     1  ZINC000437443367   -0.1500
     16 C16        -5.9251    2.3464   50.3641 C.3     1  ZINC000437443367    0.1300
     17 C17        -6.3591    0.8712   50.2401 C.3     1  ZINC000437443367   -0.1300
     18 C18        -6.7739    0.4751   51.6789 C.3     1  ZINC000437443367   -0.1300
     19 C19        -7.4713    1.7568   52.1986 C.3     1  ZINC000437443367   -0.1200
     20 C20        -6.6322    2.9094   51.6094 C.3     1  ZINC000437443367   -0.1400
     21 C21         0.5870    1.0818   50.4740 C.ar    1  ZINC000437443367   -0.1100
     22 C22         1.9571    1.1609   50.6294 C.ar    1  ZINC000437443367   -0.1300
     23 C23         2.7304    1.7773   49.6600 C.ar    1  ZINC000437443367    0.0800
     24 F24         4.0704    1.8536   49.8140 F       1  ZINC000437443367   -0.1400
     25 H25         3.2814    2.2685   46.7417 H       1  ZINC000437443367    0.0800
     26 H26         2.3944    3.7886   47.0070 H       1  ZINC000437443367    0.0700
     27 H27         3.8583    3.4353   47.9557 H       1  ZINC000437443367    0.0700
     28 H28         0.2952    2.6731   47.5019 H       1  ZINC000437443367    0.1400
     29 H29        -1.7981    0.7679   48.7661 H       1  ZINC000437443367    0.4200
     30 H30        -4.5570    1.9676   52.5754 H       1  ZINC000437443367    0.0900
     31 H31        -2.9233    1.9693   51.8687 H       1  ZINC000437443367    0.1000
     32 H32        -2.7435    4.2936   51.9480 H       1  ZINC000437443367    0.0700
     33 H33        -4.5056    4.5362   51.8828 H       1  ZINC000437443367    0.0600
     34 H34        -4.7127    3.6530   54.1904 H       1  ZINC000437443367    0.0600
     35 H35        -1.6653    3.5302   54.0686 H       1  ZINC000437443367    0.0600
     36 H36        -2.6592    3.2290   55.5141 H       1  ZINC000437443367    0.0400
     37 H37        -2.7594    2.1271   54.1199 H       1  ZINC000437443367    0.0600
     38 H38        -4.3650    6.0830   53.8399 H       1  ZINC000437443367    0.0500
     39 H39        -3.5968    5.5392   55.3507 H       1  ZINC000437443367    0.0500
     40 H40        -2.6029    5.8403   53.9051 H       1  ZINC000437443367    0.0500
     41 H41        -6.2311    2.9021   49.4777 H       1  ZINC000437443367    0.1000
     42 H42        -7.2057    0.7785   49.5599 H       1  ZINC000437443367    0.0800
     43 H43        -5.5262    0.2559   49.9002 H       1  ZINC000437443367    0.0700
     44 H44        -7.4696   -0.3638   51.6632 H       1  ZINC000437443367    0.0700
     45 H45        -5.8974    0.2403   52.2828 H       1  ZINC000437443367    0.0700
     46 H46        -8.4974    1.8071   51.8347 H       1  ZINC000437443367    0.0700
     47 H47        -7.4499    1.7876   53.2881 H       1  ZINC000437443367    0.0700
     48 H48        -5.8943    3.2447   52.3383 H       1  ZINC000437443367    0.0800
     49 H49        -7.2820    3.7379   51.3272 H       1  ZINC000437443367    0.0700
     50 H50        -0.0152    0.5974   51.2283 H       1  ZINC000437443367    0.1600
     51 H51         2.4262    0.7378   51.5054 H       1  ZINC000437443367    0.1400
@<TRIPOS>BOND
     1     1     2    1
     2     1    25    1
     3     1    26    1
     4     1    27    1
     5     2    23   ar
     6     2     3   ar
     7     3     4   ar
     8     3    28    1
     9     4     5    1
    10     4    21   ar
    11     5     6   am
    12     5    29    1
    13     6     7    2
    14     6     8    1
    15     8     9    2
    16     8    10   am
    17    10    11    1
    18    10    16    1
    19    11    12    1
    20    11    30    1
    21    11    31    1
    22    12    13    1
    23    12    32    1
    24    12    33    1
    25    13    14    1
    26    13    15    1
    27    13    34    1
    28    14    35    1
    29    14    36    1
    30    14    37    1
    31    15    38    1
    32    15    39    1
    33    15    40    1
    34    16    20    1
    35    16    17    1
    36    16    41    1
    37    17    18    1
    38    17    42    1
    39    17    43    1
    40    18    19    1
    41    18    44    1
    42    18    45    1
    43    19    20    1
    44    19    46    1
    45    19    47    1
    46    20    48    1
    47    20    49    1
    48    21    22   ar
    49    21    50    1
    50    22    23   ar
    51    22    51    1
    52    23    24    1
@<TRIPOS>SUBSTRUCTURE
     1 ZINC000437443367        1 TEMP              0 ****  ****    0 ROOT


##########                                Name:    ZINC000460163972
##########                DOCK_Rotatable_Bonds:                   7
##########                         Heavy_Atoms:                  28
##########                    Molecular_Weight:             408.469
##########                DOCK_Rotatable_Bonds:                   7
##########                       Formal_Charge:          -0.0100001
##########                     HBond_Acceptors:                   8
##########                        HBond_Donors:                   2
##########                         Heavy_Atoms:                  28
##########                          Grid_Score:          -33.162914
##########                     Grid_vdw_energy:          -32.226616
##########                      Grid_es_energy:           -0.936297
##########           Internal_energy_repulsive:           47.579319

@<TRIPOS>MOLECULE
ZINC000460163972
 50 52 1 0 0
SMALL
USER_CHARGES


@<TRIPOS>ATOM
      1 C1         -4.0302    1.6390   49.8117 C.3     1  ZINC000460163972   -0.1400
      2 C2         -5.1213    1.4526   50.8343 C.ar    1  ZINC000460163972    0.0100
      3 C3         -5.9371    0.3377   50.7772 C.ar    1  ZINC000460163972   -0.1300
      4 C4         -6.9382    0.1639   51.7130 C.ar    1  ZINC000460163972   -0.0600
      5 C5         -7.1245    1.1100   52.7119 C.ar    1  ZINC000460163972    0.1100
      6 N6         -8.1374    0.9367   53.6616 N.am    1  ZINC000460163972   -0.6700
      7 C7         -9.4225    1.1657   53.3258 C.2     1  ZINC000460163972    0.5200
      8 O8         -9.7009    1.5220   52.2004 O.2     1  ZINC000460163972   -0.5100
      9 C9        -10.5134    0.9790   54.3486 C.3     1  ZINC000460163972   -0.0700
     10 H10       -10.1092    1.1505   55.3463 H       1  ZINC000460163972    0.1200
     11 C11       -11.6424    1.9753   54.0775 C.3     1  ZINC000460163972   -0.1500
     12 C12       -11.0508   -0.4260   54.2591 C.ar    1  ZINC000460163972   -0.0600
     13 C13       -11.6180   -1.0203   55.3706 C.ar    1  ZINC000460163972   -0.0700
     14 C14       -12.1117   -2.3093   55.2910 C.ar    1  ZINC000460163972   -0.1200
     15 C15       -12.0387   -3.0056   54.0974 C.ar    1  ZINC000460163972    0.0700
     16 F16       -12.5213   -4.2650   54.0186 F       1  ZINC000460163972   -0.1300
     17 C17       -11.4700   -2.4090   52.9820 C.ar    1  ZINC000460163972    0.0700
     18 F18       -11.3976   -3.0869   51.8156 F       1  ZINC000460163972   -0.1300
     19 C19       -10.9812   -1.1172   53.0637 C.ar    1  ZINC000460163972   -0.1200
     20 C20        -6.3031    2.2287   52.7668 C.ar    1  ZINC000460163972    0.0000
     21 C21        -6.5016    3.2578   53.8497 C.3     1  ZINC000460163972   -0.1500
     22 C22        -5.3011    2.3942   51.8312 C.ar    1  ZINC000460163972   -0.6700
     23 S23        -4.2581    3.8126   51.9003 S.o2    1  ZINC000460163972    2.7000
     24 O24        -3.0185    3.4279   51.3219 O.2     1  ZINC000460163972   -0.9500
     25 O25        -5.0329    4.9041   51.4232 O.2     1  ZINC000460163972   -0.9500
     26 N26        -3.9529    4.1192   53.4989 N.am    1  ZINC000460163972   -1.0900
     27 C27        -3.2894    3.1076   54.3250 C.3     1  ZINC000460163972    0.0800
     28 C28        -2.0747    3.5498   55.1436 C.3     1  ZINC000460163972   -0.1800
     29 C29        -3.4018    3.2515   55.8441 C.3     1  ZINC000460163972   -0.1900
     30 H30        -3.0894    1.2603   50.2112 H       1  ZINC000460163972    0.1000
     31 H31        -4.2857    1.0925   48.9039 H       1  ZINC000460163972    0.0800
     32 H32        -3.9262    2.6991   49.5806 H       1  ZINC000460163972    0.0700
     33 H33        -5.7916   -0.3979   49.9999 H       1  ZINC000460163972    0.1400
     34 H34        -7.5755   -0.7069   51.6674 H       1  ZINC000460163972    0.1600
     35 H35        -7.9148    0.6517   54.5617 H       1  ZINC000460163972    0.4100
     36 H36       -12.4314    1.8403   54.8173 H       1  ZINC000460163972    0.0800
     37 H37       -11.2536    2.9916   54.1423 H       1  ZINC000460163972    0.0700
     38 H38       -12.0466    1.8038   53.0799 H       1  ZINC000460163972    0.0700
     39 H39       -11.6752   -0.4774   56.3024 H       1  ZINC000460163972    0.1400
     40 H40       -12.5540   -2.7728   56.1603 H       1  ZINC000460163972    0.1500
     41 H41       -10.5383   -0.6514   52.1957 H       1  ZINC000460163972    0.1500
     42 H42        -5.8071    3.0637   54.6671 H       1  ZINC000460163972    0.1000
     43 H43        -6.3164    4.2524   53.4440 H       1  ZINC000460163972    0.1000
     44 H44        -7.5248    3.2017   54.2212 H       1  ZINC000460163972    0.0700
     45 H45        -4.2136    4.9686   53.8882 H       1  ZINC000460163972    0.4200
     46 H46        -3.2794    2.0980   53.9144 H       1  ZINC000460163972    0.1300
     47 H47        -1.2653    2.8311   55.2715 H       1  ZINC000460163972    0.1100
     48 H48        -1.7693    4.5934   55.0673 H       1  ZINC000460163972    0.1000
     49 H49        -3.9695    4.0987   56.2287 H       1  ZINC000460163972    0.1000
     50 H50        -3.4654    2.3363   56.4329 H       1  ZINC000460163972    0.1000
@<TRIPOS>BOND
     1     1     2    1
     2     1    30    1
     3     1    31    1
     4     1    32    1
     5     2    22   ar
     6     2     3   ar
     7     3     4   ar
     8     3    33    1
     9     4     5   ar
    10     4    34    1
    11     5     6    1
    12     5    20   ar
    13     6     7   am
    14     6    35    1
    15     7     8    2
    16     7     9    1
    17     9    10    1
    18     9    11    1
    19     9    12    1
    20    11    36    1
    21    11    37    1
    22    11    38    1
    23    12    19   ar
    24    12    13   ar
    25    13    14   ar
    26    13    39    1
    27    14    15   ar
    28    14    40    1
    29    15    16    1
    30    15    17   ar
    31    17    18    1
    32    17    19   ar
    33    19    41    1
    34    20    21    1
    35    20    22   ar
    36    21    42    1
    37    21    43    1
    38    21    44    1
    39    22    23    1
    40    23    24    2
    41    23    25    2
    42    23    26   am
    43    26    27    1
    44    26    45    1
    45    27    29    1
    46    27    28    1
    47    27    46    1
    48    28    29    1
    49    28    47    1
    50    28    48    1
    51    29    49    1
    52    29    50    1
@<TRIPOS>SUBSTRUCTURE
     1 ZINC000460163972        1 TEMP              0 ****  ****    0 ROOT


##########                                Name:    ZINC001015955459
##########                DOCK_Rotatable_Bonds:                   6
##########                         Heavy_Atoms:                  24
##########                    Molecular_Weight:             347.844
##########                DOCK_Rotatable_Bonds:                   6
##########                       Formal_Charge:          -0.0200002
##########                     HBond_Acceptors:                   6
##########                        HBond_Donors:                   1
##########                         Heavy_Atoms:                  24
##########                          Grid_Score:          -33.152996
##########                     Grid_vdw_energy:          -33.692554
##########                      Grid_es_energy:            0.539559
##########           Internal_energy_repulsive:            8.518702

@<TRIPOS>MOLECULE
ZINC001015955459
 46 48 1 0 0
SMALL
USER_CHARGES


@<TRIPOS>ATOM
      1 C1         -7.2686    2.3679   53.3809 C.3     1  ZINC001015955459   -0.1500
      2 C2         -7.9123    2.0326   52.0339 C.3     1  ZINC001015955459   -0.0300
      3 C3         -7.3648    2.9736   50.9588 C.3     1  ZINC001015955459   -0.1500
      4 C4         -7.5913    0.6073   51.6647 C.2     1  ZINC001015955459    0.0600
      5 C5         -8.3055   -0.4990   52.0085 C.2     1  ZINC001015955459   -0.0800
      6 C6         -9.5401   -0.5292   52.8135 C.2     1  ZINC001015955459    0.6100
      7 O7         -9.7909    0.3839   53.5768 O.2     1  ZINC001015955459   -0.5300
      8 N8        -10.3910   -1.5686   52.7037 N.am    1  ZINC001015955459   -0.7100
      9 C9        -11.6187   -1.5978   53.5024 C.3     1  ZINC001015955459    0.1400
     10 H10       -12.0492   -0.5987   53.5704 H       1  ZINC001015955459    0.1000
     11 C11       -12.6365   -2.5789   52.8849 C.3     1  ZINC001015955459   -0.1300
     12 C12       -12.8772   -3.6457   53.9744 C.3     1  ZINC001015955459    0.0200
     13 N13       -12.5293   -2.9650   55.2482 N.3     1  ZINC001015955459   -0.4900
     14 C14       -12.2261   -3.9427   56.3019 C.3     1  ZINC001015955459    0.0800
     15 C15       -12.1222   -3.2354   57.6285 C.ar    1  ZINC001015955459   -0.1100
     16 C16       -13.1482   -2.4135   58.0556 C.ar    1  ZINC001015955459   -0.1100
     17 C17       -13.0556   -1.7681   59.2749 C.ar    1  ZINC001015955459   -0.1000
     18 C18       -11.9325   -1.9360   60.0624 C.ar    1  ZINC001015955459   -0.1100
     19 C19       -10.9027   -2.7544   59.6329 C.ar    1  ZINC001015955459   -0.0300
     20 Cl20       -9.4912   -2.9654   60.6213 Cl      1  ZINC001015955459   -0.0700
     21 C21       -10.9982   -3.4041   58.4154 C.ar    1  ZINC001015955459   -0.1000
     22 C22       -11.3277   -2.1534   54.9131 C.3     1  ZINC001015955459    0.0100
     23 N23        -7.6624   -1.5725   51.4743 N.2     1  ZINC001015955459   -0.4600
     24 C24        -6.6169   -1.1476   50.8302 C.2     1  ZINC001015955459    0.1800
     25 O25        -6.5466    0.1871   50.9336 O.3     1  ZINC001015955459   -0.1900
     26 H26        -6.1880    2.2461   53.3074 H       1  ZINC001015955459    0.0600
     27 H27        -7.5009    3.3989   53.6479 H       1  ZINC001015955459    0.0700
     28 H28        -7.6587    1.6976   54.1468 H       1  ZINC001015955459    0.0600
     29 H29        -8.9930    2.1544   52.1073 H       1  ZINC001015955459    0.1300
     30 H30        -7.8234    2.7348   49.9992 H       1  ZINC001015955459    0.0600
     31 H31        -7.5971    4.0046   51.2259 H       1  ZINC001015955459    0.0700
     32 H32        -6.2843    2.8519   50.8854 H       1  ZINC001015955459    0.0600
     33 H33       -10.1903   -2.2974   52.0958 H       1  ZINC001015955459    0.4100
     34 H34       -13.5664   -2.0613   52.6497 H       1  ZINC001015955459    0.0800
     35 H35       -12.2225   -3.0387   51.9875 H       1  ZINC001015955459    0.0700
     36 H36       -13.9230   -3.9531   53.9810 H       1  ZINC001015955459    0.0900
     37 H37       -12.2281   -4.5064   53.8137 H       1  ZINC001015955459    0.0500
     38 H38       -13.0220   -4.6860   56.3477 H       1  ZINC001015955459    0.0900
     39 H39       -11.2803   -4.4363   56.0782 H       1  ZINC001015955459    0.0900
     40 H40       -14.0241   -2.2785   57.4385 H       1  ZINC001015955459    0.1300
     41 H41       -13.8593   -1.1294   59.6100 H       1  ZINC001015955459    0.1300
     42 H42       -11.8584   -1.4282   61.0127 H       1  ZINC001015955459    0.1300
     43 H43       -10.1946   -4.0427   58.0794 H       1  ZINC001015955459    0.1300
     44 H44       -10.4364   -2.7806   54.8982 H       1  ZINC001015955459    0.0700
     45 H45       -11.2075   -1.3373   55.6256 H       1  ZINC001015955459    0.0900
     46 H46        -5.9131   -1.7715   50.2995 H       1  ZINC001015955459    0.2600
@<TRIPOS>BOND
     1     1     2    1
     2     1    26    1
     3     1    27    1
     4     1    28    1
     5     2     3    1
     6     2     4    1
     7     2    29    1
     8     3    30    1
     9     3    31    1
    10     3    32    1
    11     4    25    1
    12     4     5    2
    13     5     6    1
    14     5    23    1
    15     6     7    2
    16     6     8   am
    17     8     9    1
    18     8    33    1
    19     9    10    1
    20     9    22    1
    21     9    11    1
    22    11    12    1
    23    11    34    1
    24    11    35    1
    25    12    13    1
    26    12    36    1
    27    12    37    1
    28    13    14    1
    29    13    22    1
    30    14    15    1
    31    14    38    1
    32    14    39    1
    33    15    21   ar
    34    15    16   ar
    35    16    17   ar
    36    16    40    1
    37    17    18   ar
    38    17    41    1
    39    18    19   ar
    40    18    42    1
    41    19    20    1
    42    19    21   ar
    43    21    43    1
    44    22    44    1
    45    22    45    1
    46    23    24    2
    47    24    25    1
    48    24    46    1
@<TRIPOS>SUBSTRUCTURE
     1 ZINC001015955459        1 TEMP              0 ****  ****    0 ROOT


##########                                Name:    ZINC001085711660
##########                DOCK_Rotatable_Bonds:                   8
##########                         Heavy_Atoms:                  25
##########                    Molecular_Weight:             347.414
##########                DOCK_Rotatable_Bonds:                   8
##########                       Formal_Charge:         -0.00999993
##########                     HBond_Acceptors:                   7
##########                        HBond_Donors:                   0
##########                         Heavy_Atoms:                  25
##########                          Grid_Score:          -33.147606
##########                     Grid_vdw_energy:          -34.210335
##########                      Grid_es_energy:            1.062730
##########           Internal_energy_repulsive:           14.359020

@<TRIPOS>MOLECULE
ZINC001085711660
 50 52 1 0 0
SMALL
USER_CHARGES


@<TRIPOS>ATOM
      1 C1         -4.0803    1.6480   50.9365 C.3     1  ZINC001085711660    0.0300
      2 O2         -5.0256    0.6128   50.6596 O.3     1  ZINC001085711660   -0.3800
      3 C3         -6.3397    1.0897   50.3633 C.3     1  ZINC001085711660    0.1400
      4 C4         -7.0787    1.3577   51.6490 C.2     1  ZINC001085711660    0.0100
      5 C5         -7.0205    2.5013   52.3665 C.2     1  ZINC001085711660   -0.1900
      6 C6         -7.8537    2.3312   53.4833 C.2     1  ZINC001085711660   -0.1200
      7 C7         -8.3847    1.0768   53.3894 C.2     1  ZINC001085711660   -0.0700
      8 C8         -9.3167    0.4622   54.3403 C.2     1  ZINC001085711660    0.6000
      9 O9         -8.9924    0.3198   55.5047 O.2     1  ZINC001085711660   -0.5200
     10 N10       -10.5326    0.0552   53.9249 N.am    1  ZINC001085711660   -0.6000
     11 C11       -10.9230    0.2265   52.5233 C.3     1  ZINC001085711660    0.0700
     12 C12       -11.4637   -0.5588   54.8749 C.3     1  ZINC001085711660    0.1300
     13 C13       -11.7125   -2.0148   54.4763 C.3     1  ZINC001085711660    0.0000
     14 H14       -10.7905   -2.5597   54.2735 H       1  ZINC001085711660    0.1000
     15 C15       -12.7722   -2.1755   53.3773 C.3     1  ZINC001085711660   -0.1400
     16 C16       -13.1965   -3.3969   54.2049 C.3     1  ZINC001085711660    0.0100
     17 N17       -12.6264   -2.7261   55.3896 N.3     1  ZINC001085711660   -0.4500
     18 C18       -11.8935   -3.6798   56.2329 C.3     1  ZINC001085711660    0.1500
     19 H19       -11.0178   -4.0424   55.6947 H       1  ZINC001085711660    0.1000
     20 C20       -12.8044   -4.8596   56.5786 C.3     1  ZINC001085711660   -0.1900
     21 C21       -11.4554   -2.9949   57.5017 C.2     1  ZINC001085711660    0.2000
     22 N22       -12.0807   -2.0151   58.0898 N.2     1  ZINC001085711660   -0.4700
     23 C23       -11.3944   -1.6655   59.1921 C.2     1  ZINC001085711660   -0.0400
     24 C24       -10.3165   -2.4633   59.2715 C.2     1  ZINC001085711660   -0.0500
     25 C25        -9.2590   -2.4352   60.3448 C.3     1  ZINC001085711660   -0.0700
     26 O26       -10.3617   -3.2971   58.2138 O.3     1  ZINC001085711660   -0.2000
     27 O27        -7.9058    0.5037   52.2658 O.3     1  ZINC001085711660   -0.1500
     28 H28        -3.9964    2.3046   50.0705 H       1  ZINC001085711660    0.0500
     29 H29        -4.4152    2.2248   51.7987 H       1  ZINC001085711660    0.0500
     30 H30        -3.1082    1.2043   51.1516 H       1  ZINC001085711660    0.0900
     31 H31        -6.2701    2.0112   49.7854 H       1  ZINC001085711660    0.0900
     32 H32        -6.8772    0.3381   49.7852 H       1  ZINC001085711660    0.0700
     33 H33        -6.4417    3.3808   52.1259 H       1  ZINC001085711660    0.1600
     34 H34        -8.0388    3.0528   54.2652 H       1  ZINC001085711660    0.1600
     35 H35       -10.5384   -0.6062   51.9346 H       1  ZINC001085711660    0.0600
     36 H36       -12.0102    0.2521   52.4496 H       1  ZINC001085711660    0.0900
     37 H37       -10.5109    1.1613   52.1430 H       1  ZINC001085711660    0.0800
     38 H38       -11.0358   -0.5243   55.8768 H       1  ZINC001085711660    0.0900
     39 H39       -12.4070   -0.0127   54.8635 H       1  ZINC001085711660    0.0900
     40 H40       -13.5122   -1.3757   53.3505 H       1  ZINC001085711660    0.1000
     41 H41       -12.3645   -2.4207   52.3966 H       1  ZINC001085711660    0.0800
     42 H42       -14.2768   -3.5308   54.2588 H       1  ZINC001085711660    0.0900
     43 H43       -12.6709   -4.3114   53.9301 H       1  ZINC001085711660    0.0800
     44 H44       -13.7295   -4.4876   57.0187 H       1  ZINC001085711660    0.0800
     45 H45       -13.0328   -5.4200   55.6721 H       1  ZINC001085711660    0.0800
     46 H46       -12.2995   -5.5117   57.2913 H       1  ZINC001085711660    0.0700
     47 H47       -11.6615   -0.8840   59.8881 H       1  ZINC001085711660    0.1800
     48 H48        -9.5460   -3.1052   61.1552 H       1  ZINC001085711660    0.0800
     49 H49        -8.3067   -2.7595   59.9251 H       1  ZINC001085711660    0.0800
     50 H50        -9.1594   -1.4205   60.7302 H       1  ZINC001085711660    0.0900
@<TRIPOS>BOND
     1     1     2    1
     2     1    28    1
     3     1    29    1
     4     1    30    1
     5     2     3    1
     6     3     4    1
     7     3    31    1
     8     3    32    1
     9     4    27    1
    10     4     5    2
    11     5     6    1
    12     5    33    1
    13     6     7    2
    14     6    34    1
    15     7     8    1
    16     7    27    1
    17     8     9    2
    18     8    10   am
    19    10    11    1
    20    10    12    1
    21    11    35    1
    22    11    36    1
    23    11    37    1
    24    12    13    1
    25    12    38    1
    26    12    39    1
    27    13    14    1
    28    13    17    1
    29    13    15    1
    30    15    16    1
    31    15    40    1
    32    15    41    1
    33    16    17    1
    34    16    42    1
    35    16    43    1
    36    17    18    1
    37    18    19    1
    38    18    20    1
    39    18    21    1
    40    20    44    1
    41    20    45    1
    42    20    46    1
    43    21    26    1
    44    21    22    2
    45    22    23    1
    46    23    24    2
    47    23    47    1
    48    24    25    1
    49    24    26    1
    50    25    48    1
    51    25    49    1
    52    25    50    1
@<TRIPOS>SUBSTRUCTURE
     1 ZINC001085711660        1 TEMP              0 ****  ****    0 ROOT


##########                                Name:    ZINC000937331732
##########                DOCK_Rotatable_Bonds:                   6
##########                         Heavy_Atoms:                  24
##########                    Molecular_Weight:              333.35
##########                DOCK_Rotatable_Bonds:                   6
##########                       Formal_Charge:          -0.0299999
##########                     HBond_Acceptors:                  10
##########                        HBond_Donors:                   1
##########                         Heavy_Atoms:                  24
##########                          Grid_Score:          -33.135395
##########                     Grid_vdw_energy:          -29.767012
##########                      Grid_es_energy:           -3.368382
##########           Internal_energy_repulsive:           23.780014

@<TRIPOS>MOLECULE
ZINC000937331732
 43 45 1 0 0
SMALL
USER_CHARGES


@<TRIPOS>ATOM
      1 C1         -8.1054    4.2753   51.8447 C.3     1  ZINC000937331732    0.0600
      2 N2         -7.2319    3.1238   52.0842 N.am    1  ZINC000937331732   -0.6100
      3 C3         -6.1414    2.9338   51.3154 C.2     1  ZINC000937331732    0.5000
      4 O4         -5.8841    3.7152   50.4242 O.2     1  ZINC000937331732   -0.5200
      5 C5         -5.2418    1.7504   51.5628 C.3     1  ZINC000937331732    0.1500
      6 N6         -3.9902    1.9250   50.8217 N.am    1  ZINC000937331732   -0.4400
      7 N7         -3.6791    1.3684   49.5734 N.2     1  ZINC000937331732   -0.2800
      8 C8         -2.4862    1.7499   49.2482 C.2     1  ZINC000937331732    0.2600
      9 N9         -1.9883    2.5494   50.2481 N.am    1  ZINC000937331732   -0.5600
     10 C10        -0.6675    3.1829   50.2620 C.3     1  ZINC000937331732    0.1000
     11 C11        -2.9251    2.6564   51.2116 C.2     1  ZINC000937331732    0.6500
     12 O12        -2.8256    3.2900   52.2472 O.2     1  ZINC000937331732   -0.5500
     13 C13        -7.5437    2.1789   53.1595 C.3     1  ZINC000937331732    0.1300
     14 H14        -6.7058    2.0942   53.8515 H       1  ZINC000937331732    0.1200
     15 C15        -8.8336    2.6061   53.9087 C.3     1  ZINC000937331732   -0.1500
     16 C16        -9.3406    1.2477   54.4542 C.3     1  ZINC000937331732    0.1000
     17 N17        -9.0306    0.2747   53.3909 N.am    1  ZINC000937331732   -0.6000
     18 C18        -9.6604   -0.9003   53.1934 C.2     1  ZINC000937331732    0.6200
     19 O19        -9.3184   -1.6277   52.2810 O.2     1  ZINC000937331732   -0.5400
     20 C20       -10.7642   -1.3037   54.0835 C.2     1  ZINC000937331732    0.1400
     21 N21       -11.7564   -2.1078   53.7656 N.2     1  ZINC000937331732   -0.4400
     22 C22       -12.5608   -2.2435   54.8174 C.2     1  ZINC000937331732   -0.0300
     23 C23       -12.0614   -1.5005   55.8354 C.2     1  ZINC000937331732   -0.0200
     24 N24       -10.9296   -0.9114   55.3821 N.pl3   1  ZINC000937331732   -0.5200
     25 C25        -7.9163    0.7974   52.5813 C.3     1  ZINC000937331732    0.1000
     26 H26        -8.8815    4.0002   51.1305 H       1  ZINC000937331732    0.0700
     27 H27        -8.5675    4.5822   52.7830 H       1  ZINC000937331732    0.0800
     28 H28        -7.5172    5.1001   51.4425 H       1  ZINC000937331732    0.0800
     29 H29        -5.0255    1.6748   52.6284 H       1  ZINC000937331732    0.1300
     30 H30        -5.7385    0.8400   51.2274 H       1  ZINC000937331732    0.1300
     31 H31        -1.9667    1.4831   48.3396 H       1  ZINC000937331732    0.2300
     32 H32        -0.1301    2.9230   49.3500 H       1  ZINC000937331732    0.1000
     33 H33        -0.7842    4.2652   50.3189 H       1  ZINC000937331732    0.0800
     34 H34        -0.1053    2.8321   51.1274 H       1  ZINC000937331732    0.0800
     35 H35        -8.6028    3.2927   54.7233 H       1  ZINC000937331732    0.0900
     36 H36        -9.5567    3.0460   53.2220 H       1  ZINC000937331732    0.0800
     37 H37        -8.8140    0.9872   55.3722 H       1  ZINC000937331732    0.0800
     38 H38       -10.4155    1.2873   54.6305 H       1  ZINC000937331732    0.1100
     39 H39       -13.4583   -2.8432   54.8536 H       1  ZINC000937331732    0.1800
     40 H40       -12.4849   -1.4002   56.8238 H       1  ZINC000937331732    0.1900
     41 H41       -10.3486   -0.3180   55.8832 H       1  ZINC000937331732    0.4300
     42 H42        -8.2309    0.9051   51.5433 H       1  ZINC000937331732    0.0800
     43 H43        -7.0635    0.1215   52.6442 H       1  ZINC000937331732    0.0800
@<TRIPOS>BOND
     1     1     2    1
     2     1    26    1
     3     1    27    1
     4     1    28    1
     5     2     3   am
     6     2    13    1
     7     3     4    2
     8     3     5    1
     9     5     6    1
    10     5    29    1
    11     5    30    1
    12     6    11   am
    13     6     7    1
    14     7     8    2
    15     8     9    1
    16     8    31    1
    17     9    10    1
    18     9    11   am
    19    10    32    1
    20    10    33    1
    21    10    34    1
    22    11    12    2
    23    13    14    1
    24    13    25    1
    25    13    15    1
    26    15    16    1
    27    15    35    1
    28    15    36    1
    29    16    17    1
    30    16    37    1
    31    16    38    1
    32    17    18   am
    33    17    25    1
    34    18    19    2
    35    18    20    1
    36    20    24    1
    37    20    21    2
    38    21    22    1
    39    22    23    2
    40    22    39    1
    41    23    24    1
    42    23    40    1
    43    24    41    1
    44    25    42    1
    45    25    43    1
@<TRIPOS>SUBSTRUCTURE
     1 ZINC000937331732        1 TEMP              0 ****  ****    0 ROOT


##########                                Name:    ZINC000458730620
##########                DOCK_Rotatable_Bonds:                   9
##########                         Heavy_Atoms:                  25
##########                    Molecular_Weight:              375.44
##########                DOCK_Rotatable_Bonds:                   9
##########                       Formal_Charge:        -1.86265e-07
##########                     HBond_Acceptors:                   9
##########                        HBond_Donors:                   3
##########                         Heavy_Atoms:                  25
##########                          Grid_Score:          -33.110516
##########                     Grid_vdw_energy:          -30.187563
##########                      Grid_es_energy:           -2.922953
##########           Internal_energy_repulsive:           77.900642

@<TRIPOS>MOLECULE
ZINC000458730620
 48 49 1 0 0
SMALL
USER_CHARGES


@<TRIPOS>ATOM
      1 C1        -10.2391    2.8028   61.3942 C.3     1  ZINC000458730620   -0.1600
      2 C2        -10.4485    1.3050   61.6261 C.3     1  ZINC000458730620    0.2000
      3 C3        -11.9453    0.9892   61.5996 C.3     1  ZINC000458730620   -0.1600
      4 N4         -9.7710    0.5480   60.5705 N.am    1  ZINC000458730620   -0.7400
      5 C5         -9.6478   -0.7901   60.6739 C.2     1  ZINC000458730620    0.7100
      6 O6        -10.0976   -1.3690   61.6440 O.2     1  ZINC000458730620   -0.5800
      7 N7         -9.0260   -1.4867   59.7020 N.am    1  ZINC000458730620   -0.7500
      8 C8         -8.8937   -2.9414   59.8136 C.3     1  ZINC000458730620    0.1300
      9 C9        -10.1543   -3.6119   59.2636 C.3     1  ZINC000458730620    0.1000
     10 N10       -10.2473   -3.3687   57.8220 N.am    1  ZINC000458730620   -1.1100
     11 S11       -11.5383   -3.9537   56.9653 S.o2    1  ZINC000458730620    2.7000
     12 O12       -11.4176   -3.4295   55.6500 O.2     1  ZINC000458730620   -0.9400
     13 O13       -11.6074   -5.3453   57.2441 O.2     1  ZINC000458730620   -0.9400
     14 C14       -12.9913   -3.2350   57.6559 C.ar    1  ZINC000458730620   -0.7300
     15 C15       -12.9004   -2.0766   58.4040 C.ar    1  ZINC000458730620    0.0400
     16 C16       -14.0395   -1.5115   58.9459 C.ar    1  ZINC000458730620   -0.1800
     17 C17       -15.2730   -2.1055   58.7398 C.ar    1  ZINC000458730620    0.1900
     18 F18       -16.3862   -1.5527   59.2693 F       1  ZINC000458730620   -0.1200
     19 C19       -15.3653   -3.2660   57.9905 C.ar    1  ZINC000458730620   -0.2100
     20 C20       -14.2247   -3.8281   57.4440 C.ar    1  ZINC000458730620    0.2200
     21 F21       -14.3133   -4.9605   56.7127 F       1  ZINC000458730620   -0.1100
     22 C22        -9.8686    0.9135   62.9868 C.3     1  ZINC000458730620   -0.1100
     23 C23        -8.5656    1.6517   63.3364 C.3     1  ZINC000458730620   -0.1400
     24 C24        -9.1038    1.7581   64.7730 C.3     1  ZINC000458730620   -0.1400
     25 C25       -10.5141    1.6565   64.1683 C.3     1  ZINC000458730620   -0.1400
     26 H26       -10.7939    3.3674   62.1436 H       1  ZINC000458730620    0.0600
     27 H27        -9.1777    3.0379   61.4744 H       1  ZINC000458730620    0.0500
     28 H28       -10.5963    3.0699   60.3998 H       1  ZINC000458730620    0.0800
     29 H29       -12.3584    1.2682   60.6303 H       1  ZINC000458730620    0.0800
     30 H30       -12.0946   -0.0777   61.7648 H       1  ZINC000458730620    0.0500
     31 H31       -12.4494    1.5525   62.3851 H       1  ZINC000458730620    0.0600
     32 H32        -9.4112    1.0099   59.7971 H       1  ZINC000458730620    0.3900
     33 H33        -8.6661   -1.0248   58.9287 H       1  ZINC000458730620    0.4000
     34 H34        -8.0271   -3.2724   59.2413 H       1  ZINC000458730620    0.0800
     35 H35        -8.7639   -3.2153   60.8606 H       1  ZINC000458730620    0.0800
     36 H36       -10.1052   -4.6850   59.4487 H       1  ZINC000458730620    0.0900
     37 H37       -11.0320   -3.1975   59.7595 H       1  ZINC000458730620    0.0700
     38 H38        -9.5530   -2.8651   57.3692 H       1  ZINC000458730620    0.4300
     39 H39       -11.9386   -1.6128   58.5655 H       1  ZINC000458730620    0.1700
     40 H40       -13.9672   -0.6064   59.5306 H       1  ZINC000458730620    0.1600
     41 H41       -16.3270   -3.7301   57.8293 H       1  ZINC000458730620    0.1600
     42 H42        -9.8120   -0.1657   63.1281 H       1  ZINC000458730620    0.1100
     43 H43        -7.6746    1.0299   63.2490 H       1  ZINC000458730620    0.0700
     44 H44        -8.4617    2.6148   62.8365 H       1  ZINC000458730620    0.0800
     45 H45        -8.8369    0.9099   65.4033 H       1  ZINC000458730620    0.0800
     46 H46        -8.8997    2.7189   65.2457 H       1  ZINC000458730620    0.0700
     47 H47       -10.9429    2.6209   63.8959 H       1  ZINC000458730620    0.0800
     48 H48       -11.1961    1.0388   64.7524 H       1  ZINC000458730620    0.0700
@<TRIPOS>BOND
     1     1     2    1
     2     1    26    1
     3     1    27    1
     4     1    28    1
     5     2     3    1
     6     2     4    1
     7     2    22    1
     8     3    29    1
     9     3    30    1
    10     3    31    1
    11     4     5   am
    12     4    32    1
    13     5     6    2
    14     5     7   am
    15     7     8    1
    16     7    33    1
    17     8     9    1
    18     8    34    1
    19     8    35    1
    20     9    10    1
    21     9    36    1
    22     9    37    1
    23    10    11   am
    24    10    38    1
    25    11    12    2
    26    11    13    2
    27    11    14    1
    28    14    20   ar
    29    14    15   ar
    30    15    16   ar
    31    15    39    1
    32    16    17   ar
    33    16    40    1
    34    17    18    1
    35    17    19   ar
    36    19    20   ar
    37    19    41    1
    38    20    21    1
    39    22    25    1
    40    22    23    1
    41    22    42    1
    42    23    24    1
    43    23    43    1
    44    23    44    1
    45    24    25    1
    46    24    45    1
    47    24    46    1
    48    25    47    1
    49    25    48    1
@<TRIPOS>SUBSTRUCTURE
     1 ZINC000458730620        1 TEMP              0 ****  ****    0 ROOT


##########                                Name:    ZINC000474368324
##########                DOCK_Rotatable_Bonds:                   9
##########                         Heavy_Atoms:                  27
##########                    Molecular_Weight:             417.332
##########                DOCK_Rotatable_Bonds:                   9
##########                       Formal_Charge:        -1.63913e-07
##########                     HBond_Acceptors:                   8
##########                        HBond_Donors:                   1
##########                         Heavy_Atoms:                  27
##########                          Grid_Score:          -33.077881
##########                     Grid_vdw_energy:          -32.652691
##########                      Grid_es_energy:           -0.425191
##########           Internal_energy_repulsive:           30.056526

@<TRIPOS>MOLECULE
ZINC000474368324
 53 54 1 0 0
SMALL
USER_CHARGES


@<TRIPOS>ATOM
      1 C1        -13.3507    3.4994   49.6934 C.3     1  ZINC000474368324   -0.1500
      2 C2        -12.3918    2.8505   50.6935 C.3     1  ZINC000474368324    0.0600
      3 O3        -13.1470    2.3232   51.8160 O.3     1  ZINC000474368324   -0.3300
      4 C4        -14.0710    1.3884   51.5436 C.2     1  ZINC000474368324    0.4700
      5 O5        -15.1642    1.7168   51.1474 O.2     1  ZINC000474368324   -0.5100
      6 C6        -13.7447   -0.0708   51.7317 C.3     1  ZINC000474368324   -0.0400
      7 C7        -13.8970   -0.8034   50.3972 C.3     1  ZINC000474368324    0.0600
      8 O8        -13.3494   -0.0019   49.3485 O.3     1  ZINC000474368324   -0.3700
      9 C9        -13.5165   -0.5591   48.0433 C.3     1  ZINC000474368324    0.0300
     10 C10       -12.3040   -0.2111   52.2285 C.3     1  ZINC000474368324   -0.1200
     11 C11       -11.9647   -1.6967   52.3856 C.3     1  ZINC000474368324    0.1100
     12 N12       -12.9676   -2.3212   53.2590 N.am    1  ZINC000474368324   -0.6300
     13 C13       -12.5904   -3.0191   54.3484 C.2     1  ZINC000474368324    0.7100
     14 O14       -11.4103   -3.1368   54.6165 O.2     1  ZINC000474368324   -0.5800
     15 N15       -13.5213   -3.5866   55.1408 N.am    1  ZINC000474368324   -0.7400
     16 C16       -13.1113   -4.3453   56.3250 C.3     1  ZINC000474368324    0.2000
     17 H17       -12.2993   -5.0223   56.0597 H       1  ZINC000474368324    0.1100
     18 C18       -14.2994   -5.1546   56.8487 C.3     1  ZINC000474368324   -0.1600
     19 C19       -12.6420   -3.3927   57.3943 C.ar    1  ZINC000474368324   -0.0700
     20 C20       -13.3332   -2.2184   57.6254 C.ar    1  ZINC000474368324   -0.1000
     21 C21       -12.9036   -1.3441   58.6066 C.ar    1  ZINC000474368324   -0.0900
     22 C22       -11.7826   -1.6433   59.3573 C.ar    1  ZINC000474368324   -0.1000
     23 C23       -11.0894   -2.8184   59.1274 C.ar    1  ZINC000474368324   -0.0300
     24 Cl24       -9.6812   -3.1947   60.0702 Cl      1  ZINC000474368324   -0.0400
     25 C25       -11.5227   -3.6963   58.1485 C.ar    1  ZINC000474368324   -0.0300
     26 Cl26      -10.6544   -5.1715   57.8591 Cl      1  ZINC000474368324   -0.0400
     27 C27       -14.3899   -2.1698   52.9224 C.3     1  ZINC000474368324    0.1300
     28 C28       -14.7020   -0.6789   52.7593 C.3     1  ZINC000474368324   -0.1200
     29 H29       -12.7838    3.8952   48.8508 H       1  ZINC000474368324    0.0800
     30 H30       -14.0612    2.7544   49.3353 H       1  ZINC000474368324    0.0700
     31 H31       -13.8903    4.3110   50.1815 H       1  ZINC000474368324    0.0700
     32 H32       -11.8522    2.0389   50.2053 H       1  ZINC000474368324    0.0700
     33 H33       -11.6813    3.5955   51.0515 H       1  ZINC000474368324    0.0700
     34 H34       -13.3666   -1.7545   50.4422 H       1  ZINC000474368324    0.0700
     35 H35       -14.9537   -0.9855   50.2012 H       1  ZINC000474368324    0.0600
     36 H36       -13.0233   -1.5301   47.9969 H       1  ZINC000474368324    0.0400
     37 H37       -14.5791   -0.6809   47.8335 H       1  ZINC000474368324    0.0400
     38 H38       -13.0744    0.1086   47.3038 H       1  ZINC000474368324    0.0900
     39 H39       -11.6245    0.2429   51.5072 H       1  ZINC000474368324    0.1000
     40 H40       -12.2008    0.2893   53.1913 H       1  ZINC000474368324    0.0800
     41 H41       -11.9792   -2.1802   51.4087 H       1  ZINC000474368324    0.0800
     42 H42       -10.9759   -1.8005   52.8323 H       1  ZINC000474368324    0.0800
     43 H43       -14.4628   -3.4927   54.9269 H       1  ZINC000474368324    0.3900
     44 H44       -15.1115   -4.4777   57.1141 H       1  ZINC000474368324    0.0600
     45 H45       -14.6389   -5.8437   56.0753 H       1  ZINC000474368324    0.0700
     46 H46       -13.9944   -5.7191   57.7299 H       1  ZINC000474368324    0.0700
     47 H47       -14.2092   -1.9835   57.0390 H       1  ZINC000474368324    0.1300
     48 H48       -13.4444   -0.4265   58.7861 H       1  ZINC000474368324    0.1400
     49 H49       -11.4474   -0.9597   60.1234 H       1  ZINC000474368324    0.1500
     50 H50       -14.6021   -2.6918   51.9893 H       1  ZINC000474368324    0.0700
     51 H51       -15.0012   -2.5856   53.7233 H       1  ZINC000474368324    0.1100
     52 H52       -14.5762   -0.1740   53.7171 H       1  ZINC000474368324    0.0900
     53 H53       -15.7293   -0.5577   52.4159 H       1  ZINC000474368324    0.0900
@<TRIPOS>BOND
     1     1     2    1
     2     1    29    1
     3     1    30    1
     4     1    31    1
     5     2     3    1
     6     2    32    1
     7     2    33    1
     8     3     4    1
     9     4     5    2
    10     4     6    1
    11     6    28    1
    12     6     7    1
    13     6    10    1
    14     7     8    1
    15     7    34    1
    16     7    35    1
    17     8     9    1
    18     9    36    1
    19     9    37    1
    20     9    38    1
    21    10    11    1
    22    10    39    1
    23    10    40    1
    24    11    12    1
    25    11    41    1
    26    11    42    1
    27    12    13   am
    28    12    27    1
    29    13    14    2
    30    13    15   am
    31    15    16    1
    32    15    43    1
    33    16    17    1
    34    16    18    1
    35    16    19    1
    36    18    44    1
    37    18    45    1
    38    18    46    1
    39    19    25   ar
    40    19    20   ar
    41    20    21   ar
    42    20    47    1
    43    21    22   ar
    44    21    48    1
    45    22    23   ar
    46    22    49    1
    47    23    24    1
    48    23    25   ar
    49    25    26    1
    50    27    28    1
    51    27    50    1
    52    27    51    1
    53    28    52    1
    54    28    53    1
@<TRIPOS>SUBSTRUCTURE
     1 ZINC000474368324        1 TEMP              0 ****  ****    0 ROOT


##########                                Name:    ZINC001326371752
##########                DOCK_Rotatable_Bonds:                   5
##########                         Heavy_Atoms:                  25
##########                    Molecular_Weight:             360.397
##########                DOCK_Rotatable_Bonds:                   5
##########                       Formal_Charge:           0.0199999
##########                     HBond_Acceptors:                  10
##########                        HBond_Donors:                   0
##########                         Heavy_Atoms:                  25
##########                          Grid_Score:          -33.075577
##########                     Grid_vdw_energy:          -31.015690
##########                      Grid_es_energy:           -2.059885
##########           Internal_energy_repulsive:           13.512348

@<TRIPOS>MOLECULE
ZINC001326371752
 41 44 1 0 0
SMALL
USER_CHARGES


@<TRIPOS>ATOM
      1 C1        -14.5330    4.2255   47.9280 C.3     1  ZINC001326371752    0.0300
      2 O2        -13.6444    4.8689   48.8438 O.3     1  ZINC001326371752   -0.3800
      3 C3        -12.2989    4.9712   48.3736 C.3     1  ZINC001326371752    0.0500
      4 C4        -11.6946    3.5712   48.2484 C.3     1  ZINC001326371752    0.1200
      5 N5        -11.6283    2.9478   49.5725 N.pl3   1  ZINC001326371752   -0.2800
      6 N6        -12.5874    2.3166   50.1626 N.2     1  ZINC001326371752   -0.0800
      7 N7        -12.1994    1.8932   51.3181 N.2     1  ZINC001326371752   -0.2500
      8 C8        -10.9355    2.2584   51.5001 C.2     1  ZINC001326371752   -0.0400
      9 C9        -10.5557    2.9279   50.3838 C.2     1  ZINC001326371752    0.0000
     10 C10        -9.1874    3.5132   50.1597 C.3     1  ZINC001326371752   -0.0600
     11 C11        -8.4732    3.6302   51.5128 C.3     1  ZINC001326371752    0.1200
     12 N12        -8.6659    2.3854   52.2712 N.am    1  ZINC001326371752   -0.6100
     13 C13        -7.6175    1.5976   52.5820 C.2     1  ZINC001326371752    0.6100
     14 O14        -7.7935    0.5703   53.2104 O.2     1  ZINC001326371752   -0.5100
     15 C15        -6.2637    1.9785   52.1629 C.2     1  ZINC001326371752   -0.3400
     16 C16        -5.6087    3.0589   52.7650 C.2     1  ZINC001326371752    0.2400
     17 N17        -4.3919    3.3731   52.3630 N.2     1  ZINC001326371752   -0.5100
     18 C18        -3.7728    2.6951   51.4056 C.2     1  ZINC001326371752    0.2900
     19 S19        -2.2089    2.9055   50.7153 S.3     1  ZINC001326371752    0.2500
     20 C20        -2.3613    1.5515   49.5846 C.2     1  ZINC001326371752   -0.2100
     21 C21        -3.5624    1.0437   49.8039 C.2     1  ZINC001326371752    0.0500
     22 N22        -4.3385    1.6348   50.7714 N.am    1  ZINC001326371752   -0.4600
     23 C23        -5.5957    1.2582   51.1487 C.2     1  ZINC001326371752    0.5500
     24 O24        -6.1393    0.3094   50.6104 O.2     1  ZINC001326371752   -0.5000
     25 C25       -10.0321    2.0151   52.6824 C.3     1  ZINC001326371752    0.2000
     26 H26       -15.5335    4.1875   48.3586 H       1  ZINC001326371752    0.0900
     27 H27       -14.5605    4.7865   46.9937 H       1  ZINC001326371752    0.0500
     28 H28       -14.1825    3.2121   47.7330 H       1  ZINC001326371752    0.0500
     29 H29       -12.2907    5.4589   47.3987 H       1  ZINC001326371752    0.0600
     30 H30       -11.7112    5.5589   49.0788 H       1  ZINC001326371752    0.0600
     31 H31       -12.3175    2.9640   47.5917 H       1  ZINC001326371752    0.1200
     32 H32       -10.6904    3.6449   47.8309 H       1  ZINC001326371752    0.1200
     33 H33        -8.6149    2.8619   49.4994 H       1  ZINC001326371752    0.0900
     34 H34        -9.2819    4.5015   49.7097 H       1  ZINC001326371752    0.1000
     35 H35        -7.4083    3.7957   51.3493 H       1  ZINC001326371752    0.1100
     36 H36        -8.8906    4.4665   52.0737 H       1  ZINC001326371752    0.0800
     37 H37        -6.0918    3.6268   53.5464 H       1  ZINC001326371752    0.1900
     38 H38        -1.6286    1.2125   48.8672 H       1  ZINC001326371752    0.2200
     39 H39        -3.9208    0.1940   49.2420 H       1  ZINC001326371752    0.2000
     40 H40       -10.3492    2.6369   53.5195 H       1  ZINC001326371752    0.1000
     41 H41       -10.0618    0.9635   52.9676 H       1  ZINC001326371752    0.1000
@<TRIPOS>BOND
     1     1     2    1
     2     1    26    1
     3     1    27    1
     4     1    28    1
     5     2     3    1
     6     3     4    1
     7     3    29    1
     8     3    30    1
     9     4     5    1
    10     4    31    1
    11     4    32    1
    12     5     9    1
    13     5     6    1
    14     6     7    2
    15     7     8    1
    16     8    25    1
    17     8     9    2
    18     9    10    1
    19    10    11    1
    20    10    33    1
    21    10    34    1
    22    11    12    1
    23    11    35    1
    24    11    36    1
    25    12    13   am
    26    12    25    1
    27    13    14    2
    28    13    15    1
    29    15    23    1
    30    15    16    2
    31    16    17    1
    32    16    37    1
    33    17    18    2
    34    18    22    1
    35    18    19    1
    36    19    20    1
    37    20    21    2
    38    20    38    1
    39    21    22    1
    40    21    39    1
    41    22    23   am
    42    23    24    2
    43    25    40    1
    44    25    41    1
@<TRIPOS>SUBSTRUCTURE
     1 ZINC001326371752        1 TEMP              0 ****  ****    0 ROOT


##########                                Name:    ZINC000129637895
##########                DOCK_Rotatable_Bonds:                   7
##########                         Heavy_Atoms:                  26
##########                    Molecular_Weight:             374.464
##########                DOCK_Rotatable_Bonds:                   7
##########                       Formal_Charge:        -5.51343e-07
##########                     HBond_Acceptors:                   8
##########                        HBond_Donors:                   1
##########                         Heavy_Atoms:                  26
##########                          Grid_Score:          -33.059673
##########                     Grid_vdw_energy:          -32.115154
##########                      Grid_es_energy:           -0.944519
##########           Internal_energy_repulsive:           16.434582

@<TRIPOS>MOLECULE
ZINC000129637895
 48 50 1 0 0
SMALL
USER_CHARGES


@<TRIPOS>ATOM
      1 C1         -4.0669    3.0292   53.5255 C.3     1  ZINC000129637895   -0.1500
      2 C2         -3.4725    4.0850   52.5912 C.3     1  ZINC000129637895   -0.0500
      3 C3         -3.4057    3.5351   51.1898 C.2     1  ZINC000129637895    0.0300
      4 C4         -4.5008    3.3043   50.4434 C.2     1  ZINC000129637895   -0.0200
      5 N5         -5.8210    3.5285   50.8315 N.am    1  ZINC000129637895   -0.5900
      6 C6         -6.7950    2.6915   50.4222 C.2     1  ZINC000129637895    0.5000
      7 O7         -6.5224    1.7417   49.7168 O.2     1  ZINC000129637895   -0.4800
      8 C8         -8.2086    2.9325   50.8362 C.2     1  ZINC000129637895    0.5200
      9 O9         -8.8961    3.7193   50.2185 O.2     1  ZINC000129637895   -0.5100
     10 N10        -8.7217    2.2764   51.8958 N.am    1  ZINC000129637895   -0.5800
     11 C11       -10.1140    2.4944   52.3167 C.3     1  ZINC000129637895    0.0800
     12 C12       -10.8008    1.1313   52.4521 C.3     1  ZINC000129637895    0.0400
     13 N13       -10.0089    0.2740   53.3445 N.3     1  ZINC000129637895   -0.4900
     14 C14       -10.6835   -0.9168   53.6232 C.ar    1  ZINC000129637895    0.1500
     15 C15       -10.7512   -1.9190   52.6633 C.ar    1  ZINC000129637895   -0.2100
     16 C16       -11.4182   -3.0970   52.9393 C.ar    1  ZINC000129637895   -0.0500
     17 C17       -12.0196   -3.2815   54.1696 C.ar    1  ZINC000129637895   -0.2300
     18 C18       -11.9552   -2.2837   55.1325 C.ar    1  ZINC000129637895    0.1500
     19 O19       -12.5469   -2.4671   56.3421 O.3     1  ZINC000129637895   -0.3200
     20 C20       -13.8446   -1.8968   56.5226 C.3     1  ZINC000129637895    0.0300
     21 C21       -11.2825   -1.1030   54.8617 C.ar    1  ZINC000129637895   -0.1700
     22 C22        -8.6780    0.0062   52.7836 C.3     1  ZINC000129637895    0.0400
     23 C23        -7.9061    1.3188   52.6580 C.3     1  ZINC000129637895    0.1100
     24 S24        -3.9700    2.6695   48.8878 S.3     1  ZINC000129637895    0.2400
     25 C25        -2.3393    2.7757   49.3896 C.2     1  ZINC000129637895   -0.0300
     26 N26        -2.2693    3.2446   50.5891 N.2     1  ZINC000129637895   -0.4500
     27 H27        -5.0706    2.7698   53.1888 H       1  ZINC000129637895    0.0600
     28 H28        -3.4384    2.1388   53.5143 H       1  ZINC000129637895    0.0500
     29 H29        -4.1152    3.4270   54.5393 H       1  ZINC000129637895    0.0700
     30 H30        -4.1010    4.9755   52.6026 H       1  ZINC000129637895    0.0900
     31 H31        -2.4688    4.3445   52.9279 H       1  ZINC000129637895    0.0700
     32 H32        -6.0386    4.2866   51.3960 H       1  ZINC000129637895    0.4300
     33 H33       -10.1296    3.0093   53.2773 H       1  ZINC000129637895    0.0900
     34 H34       -10.6333    3.0933   51.5686 H       1  ZINC000129637895    0.1400
     35 H35       -11.7988    1.2666   52.8689 H       1  ZINC000129637895    0.1000
     36 H36       -10.8765    0.6630   51.4708 H       1  ZINC000129637895    0.0500
     37 H37       -10.2826   -1.7769   51.7007 H       1  ZINC000129637895    0.1300
     38 H38       -11.4698   -3.8749   52.1921 H       1  ZINC000129637895    0.1300
     39 H39       -12.5409   -4.2032   54.3821 H       1  ZINC000129637895    0.1300
     40 H40       -13.7895   -0.8171   56.3843 H       1  ZINC000129637895    0.0600
     41 H41       -14.5331   -2.3220   55.7924 H       1  ZINC000129637895    0.0600
     42 H42       -14.2012   -2.1165   57.5290 H       1  ZINC000129637895    0.1000
     43 H43       -11.2311   -0.3257   55.6098 H       1  ZINC000129637895    0.1300
     44 H44        -8.1366   -0.6743   53.4406 H       1  ZINC000129637895    0.1000
     45 H45        -8.7832   -0.4463   51.7975 H       1  ZINC000129637895    0.0500
     46 H46        -6.9648    1.1416   52.1378 H       1  ZINC000129637895    0.1100
     47 H47        -7.7085    1.7238   53.6504 H       1  ZINC000129637895    0.0900
     48 H48        -1.4886    2.4944   48.7866 H       1  ZINC000129637895    0.2000
@<TRIPOS>BOND
     1     1     2    1
     2     1    27    1
     3     1    28    1
     4     1    29    1
     5     2     3    1
     6     2    30    1
     7     2    31    1
     8     3    26    1
     9     3     4    2
    10     4     5    1
    11     4    24    1
    12     5     6   am
    13     5    32    1
    14     6     7    2
    15     6     8    1
    16     8     9    2
    17     8    10   am
    18    10    23    1
    19    10    11    1
    20    11    12    1
    21    11    33    1
    22    11    34    1
    23    12    13    1
    24    12    35    1
    25    12    36    1
    26    13    14    1
    27    13    22    1
    28    14    21   ar
    29    14    15   ar
    30    15    16   ar
    31    15    37    1
    32    16    17   ar
    33    16    38    1
    34    17    18   ar
    35    17    39    1
    36    18    19    1
    37    18    21   ar
    38    19    20    1
    39    20    40    1
    40    20    41    1
    41    20    42    1
    42    21    43    1
    43    22    23    1
    44    22    44    1
    45    22    45    1
    46    23    46    1
    47    23    47    1
    48    24    25    1
    49    25    26    2
    50    25    48    1
@<TRIPOS>SUBSTRUCTURE
     1 ZINC000129637895        1 TEMP              0 ****  ****    0 ROOT


##########                                Name:    ZINC000885154703
##########                DOCK_Rotatable_Bonds:                   5
##########                         Heavy_Atoms:                  24
##########                    Molecular_Weight:             396.259
##########                DOCK_Rotatable_Bonds:                   5
##########                       Formal_Charge:          -0.0099998
##########                     HBond_Acceptors:                   6
##########                        HBond_Donors:                   1
##########                         Heavy_Atoms:                  24
##########                          Grid_Score:          -33.051937
##########                     Grid_vdw_energy:          -31.544739
##########                      Grid_es_energy:           -1.507197
##########           Internal_energy_repulsive:            8.135520

@<TRIPOS>MOLECULE
ZINC000885154703
 43 45 1 0 0
SMALL
USER_CHARGES


@<TRIPOS>ATOM
      1 C1        -14.3189   -0.6895   52.6644 C.3     1  ZINC000885154703   -0.1500
      2 C2        -13.5089   -1.6779   51.8229 C.3     1  ZINC000885154703   -0.0300
      3 C3        -12.0453   -1.5373   52.1532 C.2     1  ZINC000885154703    0.1700
      4 N4        -11.1367   -2.4577   52.0278 N.2     1  ZINC000885154703   -0.3800
      5 O5        -10.0560   -2.0312   52.3767 O.3     1  ZINC000885154703    0.0800
      6 C6        -10.1763   -0.7596   52.7696 C.2     1  ZINC000885154703    0.1800
      7 C7         -9.0715    0.1318   53.2753 C.3     1  ZINC000885154703    0.0000
      8 H8         -8.8905   -0.0617   54.3327 H       1  ZINC000885154703    0.1300
      9 C9         -9.4497    1.6126   53.0663 C.3     1  ZINC000885154703   -0.1200
     10 C10        -8.1133    2.2956   52.6833 C.3     1  ZINC000885154703   -0.1300
     11 C11        -7.4272    1.2293   51.7937 C.3     1  ZINC000885154703    0.1400
     12 H12        -7.8247    1.2657   50.7794 H       1  ZINC000885154703    0.1000
     13 N13        -5.9758    1.4285   51.7818 N.am    1  ZINC000885154703   -0.7100
     14 C14        -5.4012    2.1386   50.7908 C.2     1  ZINC000885154703    0.5700
     15 O15        -6.0871    2.6128   49.9062 O.2     1  ZINC000885154703   -0.5100
     16 C16        -3.9382    2.3409   50.7798 C.ar    1  ZINC000885154703   -0.1600
     17 C17        -3.0984    1.3662   50.2324 C.ar    1  ZINC000885154703    0.1500
     18 F18        -3.6225    0.2352   49.7114 F       1  ZINC000885154703   -0.1200
     19 C19        -1.7293    1.5635   50.2255 C.ar    1  ZINC000885154703   -0.1500
     20 C20        -1.1926    2.7201   50.7583 C.ar    1  ZINC000885154703   -0.0400
     21 C21        -2.0197    3.6894   51.3020 C.ar    1  ZINC000885154703   -0.1100
     22 Br22       -1.2721    5.2674   52.0279 Br      1  ZINC000885154703   -0.0300
     23 C23        -3.3872    3.5092   51.3108 C.ar    1  ZINC000885154703    0.0100
     24 C24        -4.2842    4.5657   51.9025 C.3     1  ZINC000885154703   -0.1300
     25 C25        -7.7852   -0.1129   52.4671 C.3     1  ZINC000885154703   -0.1300
     26 N26       -11.4385   -0.4341   52.6262 N.2     1  ZINC000885154703   -0.4800
     27 H27       -14.1633   -0.9005   53.7225 H       1  ZINC000885154703    0.0600
     28 H28       -13.9928    0.3270   52.4448 H       1  ZINC000885154703    0.0600
     29 H29       -15.3775   -0.7912   52.4255 H       1  ZINC000885154703    0.0700
     30 H30       -13.8350   -2.6945   52.0425 H       1  ZINC000885154703    0.1000
     31 H31       -13.6645   -1.4670   50.7649 H       1  ZINC000885154703    0.0900
     32 H32       -10.1738    1.7109   52.2575 H       1  ZINC000885154703    0.0800
     33 H33        -9.8456    2.0391   53.9879 H       1  ZINC000885154703    0.0900
     34 H34        -8.2947    3.2105   52.1194 H       1  ZINC000885154703    0.0800
     35 H35        -7.5156    2.5002   53.5715 H       1  ZINC000885154703    0.0800
     36 H36        -5.4284    1.0491   52.4870 H       1  ZINC000885154703    0.4000
     37 H37        -1.0786    0.8121   49.8032 H       1  ZINC000885154703    0.1500
     38 H38        -0.1229    2.8689   50.7510 H       1  ZINC000885154703    0.1500
     39 H39        -4.5666    5.2782   51.1275 H       1  ZINC000885154703    0.0900
     40 H40        -5.1803    4.0959   52.3082 H       1  ZINC000885154703    0.0800
     41 H41        -3.7545    5.0870   52.6998 H       1  ZINC000885154703    0.0900
     42 H42        -6.9790   -0.4239   53.1314 H       1  ZINC000885154703    0.0900
     43 H43        -7.9602   -0.8760   51.7088 H       1  ZINC000885154703    0.0800
@<TRIPOS>BOND
     1     1     2    1
     2     1    27    1
     3     1    28    1
     4     1    29    1
     5     2     3    1
     6     2    30    1
     7     2    31    1
     8     3    26    1
     9     3     4    2
    10     4     5    1
    11     5     6    1
    12     6     7    1
    13     6    26    2
    14     7     8    1
    15     7    25    1
    16     7     9    1
    17     9    10    1
    18     9    32    1
    19     9    33    1
    20    10    11    1
    21    10    34    1
    22    10    35    1
    23    11    12    1
    24    11    13    1
    25    11    25    1
    26    13    14   am
    27    13    36    1
    28    14    15    2
    29    14    16    1
    30    16    23   ar
    31    16    17   ar
    32    17    18    1
    33    17    19   ar
    34    19    20   ar
    35    19    37    1
    36    20    21   ar
    37    20    38    1
    38    21    22    1
    39    21    23   ar
    40    23    24    1
    41    24    39    1
    42    24    40    1
    43    24    41    1
    44    25    42    1
    45    25    43    1
@<TRIPOS>SUBSTRUCTURE
     1 ZINC000885154703        1 TEMP              0 ****  ****    0 ROOT


##########                                Name:    ZINC000291036115
##########                DOCK_Rotatable_Bonds:                   5
##########                         Heavy_Atoms:                  22
##########                    Molecular_Weight:             366.193
##########                DOCK_Rotatable_Bonds:                   5
##########                       Formal_Charge:                0.01
##########                     HBond_Acceptors:                   7
##########                        HBond_Donors:                   0
##########                         Heavy_Atoms:                  22
##########                          Grid_Score:          -32.996490
##########                     Grid_vdw_energy:          -31.182575
##########                      Grid_es_energy:           -1.813914
##########           Internal_energy_repulsive:            6.502941

@<TRIPOS>MOLECULE
ZINC000291036115
 35 37 1 0 0
SMALL
USER_CHARGES


@<TRIPOS>ATOM
      1 C1         -3.2359    2.2981   48.9487 C.3     1  <0>        -0.1500
      2 C2         -3.4888    3.0189   50.2744 C.3     1  <0>        -0.0400
      3 H3         -3.3477    4.0911   50.1376 H       1  <0>         0.0900
      4 C4         -2.5068    2.5057   51.3294 C.3     1  <0>        -0.0200
      5 C5         -2.7952    3.1716   52.6502 C.2     1  <0>         0.1900
      6 N6         -3.5975    2.7299   53.5888 N.2     1  <0>        -0.4500
      7 C7         -3.5401    3.6439   54.5737 C.2     1  <0>         0.1500
      8 C8         -4.2878    3.5943   55.8813 C.3     1  <0>         0.2300
      9 N9         -3.4252    3.0177   56.9155 N.pl3   1  <0>        -0.3900
     10 C10        -3.3860    3.3602   58.2149 C.2     1  <0>         0.2600
     11 N11        -2.4870    2.6145   58.8044 N.2     1  <0>        -0.5400
     12 C12        -1.9338    1.7878   57.9179 C.2     1  <0>         0.2000
     13 N13        -2.4793    1.9933   56.7478 N.2     1  <0>        -0.3100
     14 N14        -2.7210    4.5774   54.1912 N.2     1  <0>        -0.3600
     15 O15        -2.2777    4.3221   53.0913 O.3     1  <0>         0.0900
     16 C16        -4.9003    2.7520   50.7299 C.ar    1  <0>        -0.0900
     17 C17        -5.7565    3.8079   50.9798 C.ar    1  <0>        -0.0700
     18 C18        -7.0517    3.5649   51.3972 C.ar    1  <0>        -0.1400
     19 C19        -7.4916    2.2633   51.5652 C.ar    1  <0>         0.1300
     20 F20        -8.7573    2.0247   51.9728 F       1  <0>        -0.1200
     21 C21        -6.6326    1.2052   51.3145 C.ar    1  <0>        -0.1300
     22 Br22       -7.2313   -0.5739   51.5427 Br      1  <0>        -0.0200
     23 C23        -5.3394    1.4511   50.8920 C.ar    1  <0>        -0.0500
     24 H24        -2.2150    2.4911   48.6192 H       1  <0>         0.0600
     25 H25        -3.3770    1.2260   49.0854 H       1  <0>         0.0700
     26 H26        -3.9355    2.6637   48.1971 H       1  <0>         0.0700
     27 H27        -2.6179    1.4265   51.4347 H       1  <0>         0.1200
     28 H28        -1.4876    2.7377   51.0205 H       1  <0>         0.1100
     29 H29        -4.5788    4.6036   56.1719 H       1  <0>         0.1300
     30 H30        -5.1794    2.9779   55.7667 H       1  <0>         0.1200
     31 H31        -3.9906    4.1191   58.6893 H       1  <0>         0.2200
     32 H32        -1.1628    1.0625   58.1321 H       1  <0>         0.2200
     33 H33        -5.4133    4.8236   50.8491 H       1  <0>         0.1400
     34 H34        -7.7202    4.3903   51.5926 H       1  <0>         0.1500
     35 H35        -4.6694    0.6269   50.6966 H       1  <0>         0.1400
@<TRIPOS>BOND
     1     1     2    1
     2     1    24    1
     3     1    25    1
     4     1    26    1
     5     2     3    1
     6     2     4    1
     7     2    16    1
     8     4     5    1
     9     4    27    1
    10     4    28    1
    11     5    15    1
    12     5     6    2
    13     6     7    1
    14     7     8    1
    15     7    14    2
    16     8     9    1
    17     8    29    1
    18     8    30    1
    19     9    13    1
    20     9    10    1
    21    10    11    2
    22    10    31    1
    23    11    12    1
    24    12    13    2
    25    12    32    1
    26    14    15    1
    27    16    23   ar
    28    16    17   ar
    29    17    18   ar
    30    17    33    1
    31    18    19   ar
    32    18    34    1
    33    19    20    1
    34    19    21   ar
    35    21    22    1
    36    21    23   ar
    37    23    35    1
@<TRIPOS>SUBSTRUCTURE
     1 <0>         1 TEMP              0 ****  ****    0 ROOT


##########                                Name:    ZINC001345966764
##########                DOCK_Rotatable_Bonds:                  10
##########                         Heavy_Atoms:                  22
##########                    Molecular_Weight:             333.258
##########                DOCK_Rotatable_Bonds:                  10
##########                       Formal_Charge:           0.0099997
##########                     HBond_Acceptors:                  11
##########                        HBond_Donors:                   4
##########                         Heavy_Atoms:                  22
##########                          Grid_Score:          -32.985680
##########                     Grid_vdw_energy:          -31.561556
##########                      Grid_es_energy:           -1.424124
##########           Internal_energy_repulsive:            6.861869

@<TRIPOS>MOLECULE
ZINC001345966764
 38 38 1 0 0
SMALL
USER_CHARGES


@<TRIPOS>ATOM
      1 N1         -4.7604    2.1429   49.0709 N.3     1  ZINC001345966764   -0.8400
      2 C2         -5.0032    1.8234   50.4841 C.3     1  ZINC001345966764    0.0200
      3 C3         -6.4156    1.2573   50.6435 C.3     1  ZINC001345966764    0.2800
      4 F4         -7.3482    2.1946   50.1863 F       1  ZINC001345966764   -0.1900
      5 F5         -6.5332    0.0800   49.8967 F       1  ZINC001345966764   -0.1800
      6 C6         -6.6796    0.9533   52.1196 C.3     1  ZINC001345966764    0.0800
      7 N7         -8.0778    0.5516   52.2929 N.am    1  ZINC001345966764   -0.7000
      8 C8         -8.4150   -0.7524   52.2456 C.2     1  ZINC001345966764    0.5100
      9 O9         -7.5609   -1.5937   52.0578 O.2     1  ZINC001345966764   -0.5100
     10 C10        -9.8412   -1.1624   52.4242 C.2     1  ZINC001345966764    0.5100
     11 O11       -10.7169   -0.3225   52.4360 O.2     1  ZINC001345966764   -0.5100
     12 N12       -10.1543   -2.4648   52.5723 N.am    1  ZINC001345966764   -0.7000
     13 C13       -11.5524   -2.8669   52.7457 C.3     1  ZINC001345966764    0.1200
     14 C14       -12.0095   -2.5241   54.1650 C.3     1  ZINC001345966764    0.0600
     15 H15       -11.4274   -1.6914   54.5596 H       1  ZINC001345966764    0.0900
     16 C16       -13.5156   -2.1810   54.1768 C.3     1  ZINC001345966764   -0.1400
     17 C17       -14.0273   -2.7827   55.5048 C.3     1  ZINC001345966764   -0.1500
     18 C18       -12.7699   -3.4182   56.1381 C.3     1  ZINC001345966764    0.0300
     19 H19       -12.3046   -2.7233   56.8371 H       1  ZINC001345966764    0.1200
     20 C20       -13.1332   -4.7235   56.8487 C.3     1  ZINC001345966764    0.4600
     21 F21       -14.0938   -4.4669   57.8330 F       1  ZINC001345966764   -0.1700
     22 F22       -13.6494   -5.6325   55.9191 F       1  ZINC001345966764   -0.1700
     23 F23       -11.9887   -5.2647   57.4440 F       1  ZINC001345966764   -0.1700
     24 O24       -11.8846   -3.6773   55.0256 O.3     1  ZINC001345966764   -0.3500
     25 H25        -5.4226    2.8264   48.7357 H       1  ZINC001345966764    0.3500
     26 H26        -3.8124    2.4580   48.9292 H       1  ZINC001345966764    0.3600
     27 H27        -4.2755    1.0845   50.8198 H       1  ZINC001345966764    0.1100
     28 H28        -4.9048    2.7286   51.0833 H       1  ZINC001345966764    0.0700
     29 H29        -6.0261    0.1447   52.4466 H       1  ZINC001345966764    0.1100
     30 H30        -6.4810    1.8444   52.7152 H       1  ZINC001345966764    0.1100
     31 H31        -8.7607    1.2241   52.4418 H       1  ZINC001345966764    0.4200
     32 H32        -9.4542   -3.1360   52.5641 H       1  ZINC001345966764    0.4200
     33 H33       -12.1750   -2.3362   52.0253 H       1  ZINC001345966764    0.1000
     34 H34       -11.6444   -3.9409   52.5837 H       1  ZINC001345966764    0.0900
     35 H35       -13.6613   -1.1008   54.1657 H       1  ZINC001345966764    0.0900
     36 H36       -14.0196   -2.6440   53.3284 H       1  ZINC001345966764    0.0900
     37 H37       -14.4261   -2.0000   56.1501 H       1  ZINC001345966764    0.1000
     38 H38       -14.7843   -3.5432   55.3128 H       1  ZINC001345966764    0.0900
@<TRIPOS>BOND
     1     1     2    1
     2     1    25    1
     3     1    26    1
     4     2     3    1
     5     2    27    1
     6     2    28    1
     7     3     4    1
     8     3     5    1
     9     3     6    1
    10     6     7    1
    11     6    29    1
    12     6    30    1
    13     7     8   am
    14     7    31    1
    15     8     9    2
    16     8    10    1
    17    10    11    2
    18    10    12   am
    19    12    13    1
    20    12    32    1
    21    13    14    1
    22    13    33    1
    23    13    34    1
    24    14    15    1
    25    14    24    1
    26    14    16    1
    27    16    17    1
    28    16    35    1
    29    16    36    1
    30    17    18    1
    31    17    37    1
    32    17    38    1
    33    18    19    1
    34    18    20    1
    35    18    24    1
    36    20    21    1
    37    20    22    1
    38    20    23    1
@<TRIPOS>SUBSTRUCTURE
     1 ZINC001345966764        1 TEMP              0 ****  ****    0 ROOT


##########                                Name:    ZINC000944933040
##########                DOCK_Rotatable_Bonds:                   4
##########                         Heavy_Atoms:                  26
##########                    Molecular_Weight:             354.449
##########                DOCK_Rotatable_Bonds:                   4
##########                       Formal_Charge:           0.0100002
##########                     HBond_Acceptors:                   5
##########                        HBond_Donors:                   0
##########                         Heavy_Atoms:                  26
##########                          Grid_Score:          -32.983105
##########                     Grid_vdw_energy:          -31.188929
##########                      Grid_es_energy:           -1.794176
##########           Internal_energy_repulsive:           14.654829

@<TRIPOS>MOLECULE
ZINC000944933040
 52 57 1 0 0
SMALL
USER_CHARGES


@<TRIPOS>ATOM
      1 O1        -12.0941    0.4221   63.5218 O.2     1  ZINC000944933040   -0.5200
      2 C2        -11.0286    0.1169   63.0212 C.2     1  ZINC000944933040    0.6400
      3 C3         -9.8088    0.6405   63.5584 C.1     1  ZINC000944933040   -0.2200
      4 C4         -8.8089    1.0699   63.9989 C.1     1  ZINC000944933040   -0.0400
      5 C5         -7.5551    1.6082   64.5511 C.3     1  ZINC000944933040   -0.0700
      6 C6         -7.5580    2.0412   66.0186 C.3     1  ZINC000944933040   -0.1600
      7 C7         -6.8253    0.7653   65.5990 C.3     1  ZINC000944933040   -0.1600
      8 N8        -10.9954   -0.7186   61.9641 N.am    1  ZINC000944933040   -0.6000
      9 C9         -9.7136   -1.1039   61.3592 C.3     1  ZINC000944933040    0.1100
     10 C10        -9.7508   -0.7613   59.8650 C.3     1  ZINC000944933040   -0.1200
     11 C11       -11.0007   -1.3778   59.2417 C.3     1  ZINC000944933040   -0.0900
     12 C12       -11.0317   -1.2891   57.7097 C.3     1  ZINC000944933040    0.1200
     13 N13       -11.5323   -2.6779   57.7430 N.am    1  ZINC000944933040   -0.6400
     14 C14       -12.2628   -3.4384   56.9036 C.2     1  ZINC000944933040    0.5500
     15 O15       -12.5330   -4.5825   57.2016 O.2     1  ZINC000944933040   -0.5300
     16 C16       -12.7439   -2.8671   55.5947 C.3     1  ZINC000944933040   -0.1300
     17 H17       -13.5064   -2.1068   55.7639 H       1  ZINC000944933040    0.1100
     18 C18       -13.2826   -3.9890   54.6708 C.3     1  ZINC000944933040   -0.1300
     19 C19       -12.3312   -3.9084   53.4394 C.3     1  ZINC000944933040    0.0900
     20 H20       -12.2711   -4.8136   52.8352 H       1  ZINC000944933040    0.1300
     21 O21       -11.0799   -3.4833   54.0725 O.3     1  ZINC000944933040   -0.3600
     22 C22       -11.5534   -2.2825   54.7767 C.3     1  ZINC000944933040    0.1200
     23 H23       -10.7991   -1.7418   55.3482 H       1  ZINC000944933040    0.1400
     24 C24       -12.2071   -1.4838   53.6093 C.3     1  ZINC000944933040   -0.2000
     25 H25       -12.7774   -0.5878   53.8543 H       1  ZINC000944933040    0.1200
     26 C26       -11.5937   -1.6499   52.2175 C.3     1  ZINC000944933040   -0.1300
     27 C27       -12.7576   -2.6206   52.6729 C.3     1  ZINC000944933040   -0.2000
     28 H28       -13.7298   -2.5799   52.1816 H       1  ZINC000944933040    0.1300
     29 C29       -10.9112   -2.9000   59.0641 C.3     1  ZINC000944933040    0.1100
     30 C30       -12.2948   -0.9159   59.9073 C.3     1  ZINC000944933040   -0.1100
     31 C31       -12.2403   -1.2618   61.4048 C.3     1  ZINC000944933040    0.1100
     32 H32        -6.9455    2.1863   63.8567 H       1  ZINC000944933040    0.1400
     33 H33        -6.9503    2.9045   66.2897 H       1  ZINC000944933040    0.1100
     34 H34        -8.4883    1.9275   66.5750 H       1  ZINC000944933040    0.1000
     35 H35        -7.2736   -0.1879   65.8794 H       1  ZINC000944933040    0.1000
     36 H36        -5.7356    0.7892   65.5941 H       1  ZINC000944933040    0.1100
     37 H37        -8.9033   -0.5556   61.8397 H       1  ZINC000944933040    0.0900
     38 H38        -9.5576   -2.1752   61.4847 H       1  ZINC000944933040    0.0800
     39 H39        -9.7772    0.3212   59.7398 H       1  ZINC000944933040    0.0800
     40 H40        -8.8635   -1.1641   59.3766 H       1  ZINC000944933040    0.0900
     41 H41       -11.7551   -0.5700   57.3255 H       1  ZINC000944933040    0.0800
     42 H42       -10.0462   -1.1877   57.2552 H       1  ZINC000944933040    0.0900
     43 H43       -13.2031   -4.9613   55.1571 H       1  ZINC000944933040    0.0800
     44 H44       -14.3124   -3.7861   54.3770 H       1  ZINC000944933040    0.0900
     45 H45       -11.8464   -0.9025   51.4653 H       1  ZINC000944933040    0.1000
     46 H46       -10.5809   -2.0488   52.1598 H       1  ZINC000944933040    0.1000
     47 H47        -9.8899   -3.2772   59.0120 H       1  ZINC000944933040    0.0900
     48 H48       -11.5388   -3.4611   59.7563 H       1  ZINC000944933040    0.0800
     49 H49       -12.4037    0.1615   59.7836 H       1  ZINC000944933040    0.0800
     50 H50       -13.1424   -1.4242   59.4478 H       1  ZINC000944933040    0.0800
     51 H51       -12.2620   -2.3443   61.5308 H       1  ZINC000944933040    0.0700
     52 H52       -13.0941   -0.8152   61.9143 H       1  ZINC000944933040    0.1000
@<TRIPOS>BOND
     1     1     2    2
     2     2     3    1
     3     2     8   am
     4     3     4    3
     5     4     5    1
     6     5     7    1
     7     5     6    1
     8     5    32    1
     9     6     7    1
    10     6    33    1
    11     6    34    1
    12     7    35    1
    13     7    36    1
    14     8    31    1
    15     8     9    1
    16     9    10    1
    17     9    37    1
    18     9    38    1
    19    10    11    1
    20    10    39    1
    21    10    40    1
    22    11    29    1
    23    11    12    1
    24    11    30    1
    25    12    13    1
    26    12    41    1
    27    12    42    1
    28    13    14   am
    29    13    29    1
    30    14    15    2
    31    14    16    1
    32    16    17    1
    33    16    22    1
    34    16    18    1
    35    18    19    1
    36    18    43    1
    37    18    44    1
    38    19    20    1
    39    19    27    1
    40    19    21    1
    41    21    22    1
    42    22    23    1
    43    22    24    1
    44    24    25    1
    45    24    27    1
    46    24    26    1
    47    26    27    1
    48    26    45    1
    49    26    46    1
    50    27    28    1
    51    29    47    1
    52    29    48    1
    53    30    31    1
    54    30    49    1
    55    30    50    1
    56    31    51    1
    57    31    52    1
@<TRIPOS>SUBSTRUCTURE
     1 ZINC000944933040        1 TEMP              0 ****  ****    0 ROOT


##########                                Name:    ZINC000550782577
##########                DOCK_Rotatable_Bonds:                   5
##########                         Heavy_Atoms:                  25
##########                    Molecular_Weight:              338.45
##########                DOCK_Rotatable_Bonds:                   5
##########                       Formal_Charge:         -0.00999954
##########                     HBond_Acceptors:                   4
##########                        HBond_Donors:                   0
##########                         Heavy_Atoms:                  25
##########                          Grid_Score:          -32.974247
##########                     Grid_vdw_energy:          -32.746197
##########                      Grid_es_energy:           -0.228049
##########           Internal_energy_repulsive:           20.123863

@<TRIPOS>MOLECULE
ZINC000550782577
 51 53 1 0 0
SMALL
USER_CHARGES


@<TRIPOS>ATOM
      1 C1        -13.3306   -2.1964   53.8058 C.3     1  ZINC000550782577    0.0700
      2 N2        -11.9671   -1.6661   53.7301 N.am    1  ZINC000550782577   -0.5900
      3 C3        -11.4309   -1.3538   52.5337 C.2     1  ZINC000550782577    0.5800
      4 O4        -12.0786   -1.5120   51.5174 O.2     1  ZINC000550782577   -0.5400
      5 C5        -10.0540   -0.8184   52.4574 C.ar    1  ZINC000550782577    0.0300
      6 C6         -9.8081    0.5064   52.8158 C.ar    1  ZINC000550782577   -0.0600
      7 C7         -8.5162    0.9959   52.7403 C.ar    1  ZINC000550782577   -0.1200
      8 C8         -7.5073    0.1406   52.3067 C.ar    1  ZINC000550782577    0.1100
      9 O9         -6.2261    0.5795   52.2181 O.3     1  ZINC000550782577   -0.3000
     10 C10        -5.9295    1.5092   51.1742 C.3     1  ZINC000550782577    0.1000
     11 C11        -7.0452    1.4743   50.1280 C.3     1  ZINC000550782577   -0.2000
     12 C12        -5.8243    2.9183   51.7609 C.3     1  ZINC000550782577   -0.1400
     13 C13        -4.6012    1.1303   50.5161 C.3     1  ZINC000550782577   -0.2000
     14 C14        -7.8278   -1.1711   51.9650 C.ar    1  ZINC000550782577   -0.0100
     15 N15        -9.0640   -1.6062   52.0532 N.ar    1  ZINC000550782577   -0.4100
     16 C16       -11.1862   -1.4755   54.9549 C.3     1  ZINC000550782577    0.1400
     17 H17       -10.1629   -1.2013   54.6987 H       1  ZINC000550782577    0.1100
     18 C18       -11.8203   -0.3677   55.8042 C.3     1  ZINC000550782577   -0.1300
     19 C19       -10.8631   -0.0269   56.9445 C.3     1  ZINC000550782577   -0.0800
     20 C20       -10.4428   -1.2760   57.6740 C.ar    1  ZINC000550782577   -0.0800
     21 C21        -9.8948   -1.1312   58.9416 C.ar    1  ZINC000550782577   -0.1200
     22 C22        -9.4851   -2.2363   59.6589 C.ar    1  ZINC000550782577   -0.1200
     23 C23        -9.6200   -3.4983   59.1115 C.ar    1  ZINC000550782577   -0.1200
     24 C24       -10.1664   -3.6446   57.8531 C.ar    1  ZINC000550782577   -0.1200
     25 C25       -10.5828   -2.5339   57.1311 C.ar    1  ZINC000550782577   -0.0700
     26 C26       -11.1840   -2.7673   55.7697 C.3     1  ZINC000550782577   -0.0900
     27 H27       -13.3131   -3.2711   53.6245 H       1  ZINC000550782577    0.0600
     28 H28       -13.7418   -2.0016   54.7963 H       1  ZINC000550782577    0.0600
     29 H29       -13.9516   -1.7111   53.0528 H       1  ZINC000550782577    0.1100
     30 H30       -10.6155    1.1422   53.1477 H       1  ZINC000550782577    0.1600
     31 H31        -8.2956    2.0179   53.0112 H       1  ZINC000550782577    0.1500
     32 H32        -7.8660    2.1148   50.4506 H       1  ZINC000550782577    0.0700
     33 H33        -6.6593    1.8314   49.1732 H       1  ZINC000550782577    0.0800
     34 H34        -7.4054    0.4517   50.0147 H       1  ZINC000550782577    0.0800
     35 H35        -5.0293    2.9431   52.5062 H       1  ZINC000550782577    0.0700
     36 H36        -5.5981    3.6274   50.9645 H       1  ZINC000550782577    0.0800
     37 H37        -6.7706    3.1882   52.2297 H       1  ZINC000550782577    0.0700
     38 H38        -4.6776    0.1282   50.0941 H       1  ZINC000550782577    0.0800
     39 H39        -4.3727    1.8422   49.7229 H       1  ZINC000550782577    0.0800
     40 H40        -3.8071    1.1506   51.2624 H       1  ZINC000550782577    0.0700
     41 H41        -7.0497   -1.8397   51.6278 H       1  ZINC000550782577    0.1900
     42 H42       -11.9875    0.5164   55.1888 H       1  ZINC000550782577    0.0700
     43 H43       -12.7689   -0.7159   56.2128 H       1  ZINC000550782577    0.0700
     44 H44        -9.9802    0.4660   56.5375 H       1  ZINC000550782577    0.0800
     45 H45       -11.3606    0.6467   57.6423 H       1  ZINC000550782577    0.0800
     46 H46        -9.7883   -0.1453   59.3696 H       1  ZINC000550782577    0.1200
     47 H47        -9.0601   -2.1157   60.6444 H       1  ZINC000550782577    0.1200
     48 H48        -9.2985   -4.3671   59.6669 H       1  ZINC000550782577    0.1200
     49 H49       -10.2712   -4.6311   57.4260 H       1  ZINC000550782577    0.1200
     50 H50       -12.2086   -3.1208   55.8850 H       1  ZINC000550782577    0.0800
     51 H51       -10.6007   -3.5234   55.2441 H       1  ZINC000550782577    0.0800
@<TRIPOS>BOND
     1     1     2    1
     2     1    27    1
     3     1    28    1
     4     1    29    1
     5     2     3   am
     6     2    16    1
     7     3     4    2
     8     3     5    1
     9     5    15   ar
    10     5     6   ar
    11     6     7   ar
    12     6    30    1
    13     7     8   ar
    14     7    31    1
    15     8     9    1
    16     8    14   ar
    17     9    10    1
    18    10    11    1
    19    10    12    1
    20    10    13    1
    21    11    32    1
    22    11    33    1
    23    11    34    1
    24    12    35    1
    25    12    36    1
    26    12    37    1
    27    13    38    1
    28    13    39    1
    29    13    40    1
    30    14    15   ar
    31    14    41    1
    32    16    17    1
    33    16    26    1
    34    16    18    1
    35    18    19    1
    36    18    42    1
    37    18    43    1
    38    19    20    1
    39    19    44    1
    40    19    45    1
    41    20    25   ar
    42    20    21   ar
    43    21    22   ar
    44    21    46    1
    45    22    23   ar
    46    22    47    1
    47    23    24   ar
    48    23    48    1
    49    24    25   ar
    50    24    49    1
    51    25    26    1
    52    26    50    1
    53    26    51    1
@<TRIPOS>SUBSTRUCTURE
     1 ZINC000550782577        1 TEMP              0 ****  ****    0 ROOT


##########                                Name:    ZINC000507831344
##########                DOCK_Rotatable_Bonds:                   6
##########                         Heavy_Atoms:                  31
##########                    Molecular_Weight:              422.53
##########                DOCK_Rotatable_Bonds:                   6
##########                       Formal_Charge:          -0.0200002
##########                     HBond_Acceptors:                   8
##########                        HBond_Donors:                   2
##########                         Heavy_Atoms:                  31
##########                          Grid_Score:          -32.969204
##########                     Grid_vdw_energy:          -31.838593
##########                      Grid_es_energy:           -1.130611
##########           Internal_energy_repulsive:           32.905106

@<TRIPOS>MOLECULE
ZINC000507831344
 61 64 1 0 0
SMALL
USER_CHARGES


@<TRIPOS>ATOM
      1 C1        -13.6109    3.3695   51.9770 C.3     1  ZINC000507831344   -0.1000
      2 C2        -12.4981    2.3856   52.2320 C.ar    1  ZINC000507831344   -0.0800
      3 C3        -11.1823    2.8092   52.2607 C.ar    1  ZINC000507831344   -0.0800
      4 C4        -10.1857    1.8644   52.5005 C.ar    1  ZINC000507831344    0.0900
      5 N5         -8.8381    2.2488   52.5389 N.am    1  ZINC000507831344   -0.6700
      6 C6         -8.3085    2.9517   51.5183 C.2     1  ZINC000507831344    0.5100
      7 O7         -8.9978    3.2518   50.5665 O.2     1  ZINC000507831344   -0.5100
      8 C8         -6.8598    3.3650   51.5596 C.3     1  ZINC000507831344   -0.1400
      9 C9         -6.0583    2.3354   52.3586 C.3     1  ZINC000507831344   -0.0500
     10 C10        -4.7976    1.9888   51.6092 C.2     1  ZINC000507831344   -0.2200
     11 C11        -3.6447    2.6647   51.8569 C.2     1  ZINC000507831344    0.2100
     12 C12        -3.6130    3.7679   52.8830 C.3     1  ZINC000507831344   -0.1400
     13 N13        -2.5203    2.3332   51.1681 N.pl3   1  ZINC000507831344   -0.3000
     14 N14        -1.2146    2.8373   51.2027 N.am    1  ZINC000507831344   -0.5100
     15 C15        -0.4701    2.1550   50.3116 C.2     1  ZINC000507831344    0.5500
     16 O16         0.7150    2.3362   50.0834 O.2     1  ZINC000507831344   -0.5400
     17 C17        -1.2840    1.2064   49.6943 C.2     1  ZINC000507831344   -0.3500
     18 C18        -2.5616    1.3263   50.2366 C.2     1  ZINC000507831344    0.3500
     19 N19        -3.7013    0.6664   49.9999 N.2     1  ZINC000507831344   -0.4800
     20 C20        -4.8019    0.9643   50.6562 C.2     1  ZINC000507831344    0.2500
     21 C21        -6.0737    0.2070   50.3732 C.3     1  ZINC000507831344   -0.1200
     22 C22       -10.5435    0.5401   52.7012 C.ar    1  ZINC000507831344    0.0800
     23 N23       -11.8098    0.1706   52.6669 N.ar    1  ZINC000507831344   -0.4900
     24 C24       -12.7824    1.0410   52.4472 C.ar    1  ZINC000507831344    0.2800
     25 N25       -14.1040    0.6041   52.4207 N.3     1  ZINC000507831344   -0.4800
     26 C26       -14.4979    0.2013   51.0645 C.3     1  ZINC000507831344    0.0600
     27 C27       -15.9911   -0.1332   51.0438 C.3     1  ZINC000507831344   -0.1200
     28 C28       -16.2688   -1.2674   52.0343 C.3     1  ZINC000507831344   -0.1200
     29 C29       -15.8052   -0.8408   53.4298 C.3     1  ZINC000507831344   -0.1100
     30 C30       -14.3174   -0.4858   53.3814 C.3     1  ZINC000507831344    0.0900
     31 H31       -13.7453   -1.3603   53.0715 H       1  ZINC000507831344    0.0600
     32 C32       -13.8544   -0.0393   54.7696 C.3     1  ZINC000507831344   -0.1400
     33 H33       -14.0136    3.7170   52.9284 H       1  ZINC000507831344    0.0700
     34 H34       -13.2231    4.2188   51.4146 H       1  ZINC000507831344    0.0600
     35 H35       -14.4007    2.8840   51.4036 H       1  ZINC000507831344    0.0800
     36 H36       -10.9324    3.8475   52.1007 H       1  ZINC000507831344    0.1500
     37 H37        -8.2867    2.0086   53.3001 H       1  ZINC000507831344    0.4100
     38 H38        -6.4689    3.4208   50.5437 H       1  ZINC000507831344    0.1000
     39 H39        -6.7740    4.3415   52.0361 H       1  ZINC000507831344    0.1000
     40 H40        -5.7994    2.7523   53.3320 H       1  ZINC000507831344    0.0900
     41 H41        -6.6580    1.4357   52.4966 H       1  ZINC000507831344    0.1000
     42 H42        -3.3609    3.3504   53.8578 H       1  ZINC000507831344    0.1000
     43 H43        -2.8633    4.5066   52.5992 H       1  ZINC000507831344    0.0800
     44 H44        -4.5918    4.2449   52.9342 H       1  ZINC000507831344    0.1100
     45 H45        -0.8995    3.5568   51.7718 H       1  ZINC000507831344    0.4400
     46 H46        -0.9788    0.5046   48.9323 H       1  ZINC000507831344    0.1700
     47 H47        -5.8872   -0.5411   49.6025 H       1  ZINC000507831344    0.0900
     48 H48        -6.4132   -0.2865   51.2838 H       1  ZINC000507831344    0.1000
     49 H49        -6.8405    0.9006   50.0283 H       1  ZINC000507831344    0.0900
     50 H50        -9.7770   -0.1976   52.8872 H       1  ZINC000507831344    0.1600
     51 H51       -14.2991    1.0182   50.3709 H       1  ZINC000507831344    0.0700
     52 H52       -13.9249   -0.6763   50.7655 H       1  ZINC000507831344    0.0500
     53 H53       -16.5655    0.7481   51.3294 H       1  ZINC000507831344    0.0700
     54 H54       -16.2799   -0.4471   50.0407 H       1  ZINC000507831344    0.0700
     55 H55       -17.3378   -1.4797   52.0546 H       1  ZINC000507831344    0.0700
     56 H56       -15.7250   -2.1607   51.7270 H       1  ZINC000507831344    0.0600
     57 H57       -16.3767    0.0293   53.7530 H       1  ZINC000507831344    0.0700
     58 H58       -15.9612   -1.6603   54.1315 H       1  ZINC000507831344    0.0700
     59 H59       -13.9303   -0.8757   55.4644 H       1  ZINC000507831344    0.0600
     60 H60       -12.8187    0.2962   54.7167 H       1  ZINC000507831344    0.0500
     61 H61       -14.4843    0.7798   55.1167 H       1  ZINC000507831344    0.0600
@<TRIPOS>BOND
     1     1     2    1
     2     1    33    1
     3     1    34    1
     4     1    35    1
     5     2    24   ar
     6     2     3   ar
     7     3     4   ar
     8     3    36    1
     9     4     5    1
    10     4    22   ar
    11     5     6   am
    12     5    37    1
    13     6     7    2
    14     6     8    1
    15     8     9    1
    16     8    38    1
    17     8    39    1
    18     9    10    1
    19     9    40    1
    20     9    41    1
    21    10    20    1
    22    10    11    2
    23    11    12    1
    24    11    13    1
    25    12    42    1
    26    12    43    1
    27    12    44    1
    28    13    18    1
    29    13    14    1
    30    14    15   am
    31    14    45    1
    32    15    16    2
    33    15    17    1
    34    17    18    2
    35    17    46    1
    36    18    19    1
    37    19    20    2
    38    20    21    1
    39    21    47    1
    40    21    48    1
    41    21    49    1
    42    22    23   ar
    43    22    50    1
    44    23    24   ar
    45    24    25    1
    46    25    30    1
    47    25    26    1
    48    26    27    1
    49    26    51    1
    50    26    52    1
    51    27    28    1
    52    27    53    1
    53    27    54    1
    54    28    29    1
    55    28    55    1
    56    28    56    1
    57    29    30    1
    58    29    57    1
    59    29    58    1
    60    30    31    1
    61    30    32    1
    62    32    59    1
    63    32    60    1
    64    32    61    1
@<TRIPOS>SUBSTRUCTURE
     1 ZINC000507831344        1 TEMP              0 ****  ****    0 ROOT


##########                                Name:    ZINC001065334255
##########                DOCK_Rotatable_Bonds:                   7
##########                         Heavy_Atoms:                  23
##########                    Molecular_Weight:             346.448
##########                DOCK_Rotatable_Bonds:                   7
##########                       Formal_Charge:        -5.81145e-07
##########                     HBond_Acceptors:                   8
##########                        HBond_Donors:                   1
##########                         Heavy_Atoms:                  23
##########                          Grid_Score:          -32.968250
##########                     Grid_vdw_energy:          -31.569523
##########                      Grid_es_energy:           -1.398728
##########           Internal_energy_repulsive:           19.106852

@<TRIPOS>MOLECULE
ZINC001065334255
 49 50 1 0 0
SMALL
USER_CHARGES


@<TRIPOS>ATOM
      1 C1         -4.2716    4.6266   56.8246 C.3     1  ZINC001065334255   -0.1500
      2 C2         -3.5935    4.2889   55.4953 C.3     1  ZINC001065334255   -0.0800
      3 C3         -4.6515    3.8548   54.4788 C.3     1  ZINC001065334255   -0.1500
      4 C4         -2.8579    5.5234   54.9699 C.3     1  ZINC001065334255   -0.1400
      5 C5         -2.0334    5.1429   53.7672 C.2     1  ZINC001065334255    0.5100
      6 O6         -0.9713    4.5762   53.9148 O.2     1  ZINC001065334255   -0.5300
      7 N7         -2.4763    5.4323   52.5276 N.am    1  ZINC001065334255   -0.7300
      8 C8         -1.6755    5.0608   51.3584 C.3     1  ZINC001065334255    0.1300
      9 C9         -1.8908    3.5792   51.0428 C.3     1  ZINC001065334255    0.0700
     10 H10        -1.8291    2.9982   51.9631 H       1  ZINC001065334255    0.0700
     11 C11        -3.2725    3.3865   50.4075 C.3     1  ZINC001065334255    0.0800
     12 N12        -3.3802    1.9940   49.9442 N.am    1  ZINC001065334255   -0.6100
     13 C13        -4.4425    1.2331   50.2745 C.2     1  ZINC001065334255    0.5400
     14 O14        -4.5133    0.0876   49.8824 O.2     1  ZINC001065334255   -0.5200
     15 C15        -5.5423    1.8057   51.1310 C.3     1  ZINC001065334255   -0.1100
     16 H16        -5.1183    2.2690   52.0220 H       1  ZINC001065334255    0.1200
     17 C17        -6.5292    0.6957   51.5330 C.3     1  ZINC001065334255   -0.1000
     18 C18        -7.8024    1.3498   52.1057 C.3     1  ZINC001065334255   -0.5900
     19 S19        -7.9057    2.9843   51.2911 S.o2    1  ZINC001065334255    2.3900
     20 O20        -9.0150    2.9986   50.4032 O.2     1  ZINC001065334255   -0.9300
     21 O21        -7.7678    4.0069   52.2681 O.2     1  ZINC001065334255   -0.9300
     22 C22        -6.3540    2.8514   50.3238 C.3     1  ZINC001065334255   -0.5900
     23 C23        -2.2942    1.4569   49.1091 C.3     1  ZINC001065334255    0.0600
     24 C24        -0.9601    1.7435   49.8077 C.3     1  ZINC001065334255    0.0500
     25 O25        -0.8853    3.1346   50.1291 O.3     1  ZINC001065334255   -0.3700
     26 H26        -4.7957    3.7472   57.1988 H       1  ZINC001065334255    0.0600
     27 H27        -3.5178    4.9359   57.5487 H       1  ZINC001065334255    0.0500
     28 H28        -4.9843    5.4373   56.6732 H       1  ZINC001065334255    0.0600
     29 H29        -2.8808    3.4782   55.6465 H       1  ZINC001065334255    0.0800
     30 H30        -5.3643    4.6655   54.3275 H       1  ZINC001065334255    0.0500
     31 H31        -4.1684    3.6142   53.5319 H       1  ZINC001065334255    0.0700
     32 H32        -5.1756    2.9754   54.8531 H       1  ZINC001065334255    0.0500
     33 H33        -3.5836    6.2856   54.6865 H       1  ZINC001065334255    0.0900
     34 H34        -2.2043    5.9158   55.7490 H       1  ZINC001065334255    0.0900
     35 H35        -3.3252    5.8866   52.4097 H       1  ZINC001065334255    0.4000
     36 H36        -1.9811    5.6626   50.5026 H       1  ZINC001065334255    0.0900
     37 H37        -0.6209    5.2378   51.5692 H       1  ZINC001065334255    0.0800
     38 H38        -4.0479    3.5886   51.1464 H       1  ZINC001065334255    0.1100
     39 H39        -3.3853    4.0646   49.5615 H       1  ZINC001065334255    0.0900
     40 H40        -6.7859    0.0989   50.6577 H       1  ZINC001065334255    0.1000
     41 H41        -6.0736    0.0564   52.2892 H       1  ZINC001065334255    0.1000
     42 H42        -8.6788    0.7493   51.8620 H       1  ZINC001065334255    0.1500
     43 H43        -7.7132    1.4699   53.1855 H       1  ZINC001065334255    0.1400
     44 H44        -5.8331    3.8086   50.2948 H       1  ZINC001065334255    0.1400
     45 H45        -6.5562    2.4891   49.3160 H       1  ZINC001065334255    0.1500
     46 H46        -2.4216    0.3812   48.9883 H       1  ZINC001065334255    0.1000
     47 H47        -2.3085    1.9407   48.1324 H       1  ZINC001065334255    0.0900
     48 H48        -0.8948    1.1552   50.7230 H       1  ZINC001065334255    0.0600
     49 H49        -0.1372    1.4784   49.1440 H       1  ZINC001065334255    0.1100
@<TRIPOS>BOND
     1     1     2    1
     2     1    26    1
     3     1    27    1
     4     1    28    1
     5     2     3    1
     6     2     4    1
     7     2    29    1
     8     3    30    1
     9     3    31    1
    10     3    32    1
    11     4     5    1
    12     4    33    1
    13     4    34    1
    14     5     6    2
    15     5     7   am
    16     7     8    1
    17     7    35    1
    18     8     9    1
    19     8    36    1
    20     8    37    1
    21     9    10    1
    22     9    25    1
    23     9    11    1
    24    11    12    1
    25    11    38    1
    26    11    39    1
    27    12    13   am
    28    12    23    1
    29    13    14    2
    30    13    15    1
    31    15    16    1
    32    15    22    1
    33    15    17    1
    34    17    18    1
    35    17    40    1
    36    17    41    1
    37    18    19    1
    38    18    42    1
    39    18    43    1
    40    19    20    2
    41    19    21    2
    42    19    22    1
    43    22    44    1
    44    22    45    1
    45    23    24    1
    46    23    46    1
    47    23    47    1
    48    24    25    1
    49    24    48    1
    50    24    49    1
@<TRIPOS>SUBSTRUCTURE
     1 ZINC001065334255        1 TEMP              0 ****  ****    0 ROOT


##########                                Name:    ZINC000558213406
##########                DOCK_Rotatable_Bonds:                   8
##########                         Heavy_Atoms:                  30
##########                    Molecular_Weight:               408.5
##########                DOCK_Rotatable_Bonds:                   8
##########                       Formal_Charge:          -0.0299987
##########                     HBond_Acceptors:                   7
##########                        HBond_Donors:                   2
##########                         Heavy_Atoms:                  30
##########                          Grid_Score:          -32.967556
##########                     Grid_vdw_energy:          -30.590218
##########                      Grid_es_energy:           -2.377339
##########           Internal_energy_repulsive:            9.409586

@<TRIPOS>MOLECULE
ZINC000558213406
 58 61 1 0 0
SMALL
USER_CHARGES


@<TRIPOS>ATOM
      1 O1         -2.6715    3.0115   50.8590 O.2     1  ZINC000558213406   -0.5700
      2 C2         -2.6824    1.9562   50.2550 C.2     1  ZINC000558213406    0.7100
      3 N3         -3.8391    1.2832   50.0950 N.am    1  ZINC000558213406   -0.6800
      4 C4         -5.0283    1.7968   50.6297 C.ar    1  ZINC000558213406    0.1700
      5 C5         -5.7240    1.0782   51.5928 C.ar    1  ZINC000558213406   -0.1300
      6 C6         -6.8954    1.5849   52.1197 C.ar    1  ZINC000558213406   -0.1100
      7 C7         -7.3776    2.8117   51.6866 C.ar    1  ZINC000558213406    0.0600
      8 O8         -8.5313    3.3100   52.2054 O.3     1  ZINC000558213406   -0.2500
      9 C9         -9.7000    2.9799   51.5955 C.ar    1  ZINC000558213406    0.0700
     10 C10       -10.4656    1.9175   52.0655 C.ar    1  ZINC000558213406   -0.1500
     11 C11       -11.6497    1.6189   51.4106 C.ar    1  ZINC000558213406   -0.1300
     12 C12       -12.0287    2.3800   50.3208 C.ar    1  ZINC000558213406    0.0600
     13 N13       -11.2795    3.3807   49.9002 N.ar    1  ZINC000558213406   -0.4500
     14 C14       -10.1497    3.7012   50.4986 C.ar    1  ZINC000558213406    0.0800
     15 C15        -6.6825    3.5304   50.7246 C.ar    1  ZINC000558213406   -0.1000
     16 C16        -5.5082    3.0270   50.2008 C.ar    1  ZINC000558213406   -0.1100
     17 N17        -1.5388    1.4622   49.7408 N.am    1  ZINC000558213406   -0.7300
     18 C18        -0.2813    2.1938   49.9147 C.3     1  ZINC000558213406    0.1500
     19 H19        -0.4752    3.2381   50.1595 H       1  ZINC000558213406    0.1100
     20 C20         0.5948    1.5271   51.0080 C.3     1  ZINC000558213406   -0.1400
     21 C21         2.0175    1.9580   50.5719 C.3     1  ZINC000558213406    0.1000
     22 N22         1.9879    1.9211   49.0984 N.am    1  ZINC000558213406   -0.6200
     23 C23         3.0589    1.7672   48.2948 C.2     1  ZINC000558213406    0.5400
     24 O24         4.1653    1.6444   48.7760 O.2     1  ZINC000558213406   -0.5300
     25 C25         2.8816    1.7479   46.7984 C.3     1  ZINC000558213406   -0.1000
     26 C26         2.9816    3.1744   46.2546 C.3     1  ZINC000558213406   -0.1100
     27 C27         2.8016    3.1548   44.7353 C.3     1  ZINC000558213406   -0.1200
     28 C28         3.8945    2.2904   44.1034 C.3     1  ZINC000558213406   -0.1200
     29 C29         3.7945    0.8638   44.6473 C.3     1  ZINC000558213406   -0.1200
     30 C30         3.9745    0.8835   46.1666 C.3     1  ZINC000558213406   -0.1100
     31 C31         0.5943    2.0830   48.6488 C.3     1  ZINC000558213406    0.1000
     32 H32        -3.8485    0.4434   49.6097 H       1  ZINC000558213406    0.4100
     33 H33        -5.3491    0.1230   51.9294 H       1  ZINC000558213406    0.1300
     34 H34        -7.4366    1.0260   52.8688 H       1  ZINC000558213406    0.1400
     35 H35       -10.1447    1.3395   52.9194 H       1  ZINC000558213406    0.1400
     36 H36       -12.2692    0.8009   51.7476 H       1  ZINC000558213406    0.1400
     37 H37       -12.9506    2.1520   49.8065 H       1  ZINC000558213406    0.1600
     38 H38        -9.5630    4.5276   50.1254 H       1  ZINC000558213406    0.1700
     39 H39        -7.0583    4.4853   50.3879 H       1  ZINC000558213406    0.1400
     40 H40        -4.9672    3.5867   49.4523 H       1  ZINC000558213406    0.1500
     41 H41        -1.5481    0.6225   49.2554 H       1  ZINC000558213406    0.4000
     42 H42         0.3532    1.9198   51.9956 H       1  ZINC000558213406    0.0900
     43 H43         0.4907    0.4424   50.9844 H       1  ZINC000558213406    0.0800
     44 H44         2.2319    2.9677   50.9218 H       1  ZINC000558213406    0.0700
     45 H45         2.7598    1.2574   50.9541 H       1  ZINC000558213406    0.0800
     46 H46         1.9037    1.3334   46.5538 H       1  ZINC000558213406    0.0900
     47 H47         2.2029    3.7903   46.7048 H       1  ZINC000558213406    0.0600
     48 H48         3.9595    3.5889   46.4993 H       1  ZINC000558213406    0.0700
     49 H49         1.8236    2.7404   44.4906 H       1  ZINC000558213406    0.0600
     50 H50         2.8728    4.1711   44.3479 H       1  ZINC000558213406    0.0700
     51 H51         3.7662    2.2764   43.0211 H       1  ZINC000558213406    0.0600
     52 H52         4.8724    2.7049   44.3481 H       1  ZINC000558213406    0.0600
     53 H53         2.8166    0.4493   44.4026 H       1  ZINC000558213406    0.0600
     54 H54         4.5731    0.2480   44.1971 H       1  ZINC000558213406    0.0700
     55 H55         4.9525    1.2979   46.4113 H       1  ZINC000558213406    0.0800
     56 H56         3.9033   -0.1328   46.5540 H       1  ZINC000558213406    0.0600
     57 H57         0.2898    1.2145   48.0650 H       1  ZINC000558213406    0.0800
     58 H58         0.5015    2.9876   48.0477 H       1  ZINC000558213406    0.0800
@<TRIPOS>BOND
     1     1     2    2
     2     2     3   am
     3     2    17   am
     4     3     4    1
     5     3    32    1
     6     4    16   ar
     7     4     5   ar
     8     5     6   ar
     9     5    33    1
    10     6     7   ar
    11     6    34    1
    12     7     8    1
    13     7    15   ar
    14     8     9    1
    15     9    14   ar
    16     9    10   ar
    17    10    11   ar
    18    10    35    1
    19    11    12   ar
    20    11    36    1
    21    12    13   ar
    22    12    37    1
    23    13    14   ar
    24    14    38    1
    25    15    16   ar
    26    15    39    1
    27    16    40    1
    28    17    18    1
    29    17    41    1
    30    18    19    1
    31    18    31    1
    32    18    20    1
    33    20    21    1
    34    20    42    1
    35    20    43    1
    36    21    22    1
    37    21    44    1
    38    21    45    1
    39    22    23   am
    40    22    31    1
    41    23    24    2
    42    23    25    1
    43    25    30    1
    44    25    26    1
    45    25    46    1
    46    26    27    1
    47    26    47    1
    48    26    48    1
    49    27    28    1
    50    27    49    1
    51    27    50    1
    52    28    29    1
    53    28    51    1
    54    28    52    1
    55    29    30    1
    56    29    53    1
    57    29    54    1
    58    30    55    1
    59    30    56    1
    60    31    57    1
    61    31    58    1
@<TRIPOS>SUBSTRUCTURE
     1 ZINC000558213406        1 TEMP              0 ****  ****    0 ROOT


##########                                Name:    ZINC000822449555
##########                DOCK_Rotatable_Bonds:                   5
##########                         Heavy_Atoms:                  27
##########                    Molecular_Weight:             366.383
##########                DOCK_Rotatable_Bonds:                   5
##########                       Formal_Charge:          -0.0100009
##########                     HBond_Acceptors:                  10
##########                        HBond_Donors:                   2
##########                         Heavy_Atoms:                  27
##########                          Grid_Score:          -32.932613
##########                     Grid_vdw_energy:          -30.570675
##########                      Grid_es_energy:           -2.361940
##########           Internal_energy_repulsive:            8.220910

@<TRIPOS>MOLECULE
ZINC000822449555
 45 48 1 0 0
SMALL
USER_CHARGES


@<TRIPOS>ATOM
      1 C1         -8.9835   -3.5834   59.5360 C.3     1  ZINC000822449555   -0.1100
      2 C2        -10.0357   -2.8613   58.7342 C.ar    1  ZINC000822449555    0.1400
      3 N3        -10.4990   -3.4063   57.6257 N.ar    1  ZINC000822449555   -0.5000
      4 C4        -11.4229   -2.8082   56.8900 C.ar    1  ZINC000822449555    0.3000
      5 N5        -11.8813   -3.4224   55.7277 N.3     1  ZINC000822449555   -0.4700
      6 C6        -11.5332   -2.6288   54.5401 C.3     1  ZINC000822449555    0.0200
      7 C7        -12.0019   -3.3678   53.2839 C.3     1  ZINC000822449555    0.0600
      8 O8        -13.4077   -3.6133   53.3780 O.3     1  ZINC000822449555   -0.3800
      9 C9        -13.7822   -4.3843   54.5230 C.3     1  ZINC000822449555    0.0600
     10 C10       -13.3314   -3.6556   55.7917 C.3     1  ZINC000822449555    0.0300
     11 C11       -11.9411   -1.5734   57.2654 C.ar    1  ZINC000822449555   -0.1700
     12 C12       -11.4791   -0.9718   58.4217 C.ar    1  ZINC000822449555   -0.0500
     13 C13       -10.5097   -1.6342   59.1731 C.ar    1  ZINC000822449555    0.0600
     14 N14       -10.0125   -1.0621   60.3515 N.am    1  ZINC000822449555   -0.6600
     15 C15       -10.8146   -0.9289   61.4264 C.2     1  ZINC000822449555    0.5700
     16 O16       -11.9697   -1.3049   61.3735 O.2     1  ZINC000822449555   -0.5100
     17 C17       -10.2904   -0.3259   62.6686 C.ar    1  ZINC000822449555   -0.1800
     18 C18        -8.9194   -0.3696   62.9561 C.ar    1  ZINC000822449555   -0.0100
     19 C19        -8.4761    0.2077   64.1298 C.ar    1  ZINC000822449555   -0.1300
     20 C20        -9.3996    0.8102   64.9830 C.ar    1  ZINC000822449555    0.2300
     21 C21        -8.9318    1.4327   66.2456 C.2     1  ZINC000822449555    0.2100
     22 N22        -7.6881    1.4954   66.6794 N.2     1  ZINC000822449555   -0.2500
     23 N23        -7.6958    2.1133   67.8102 N.pl3   1  ZINC000822449555   -0.2200
     24 N24        -8.9041    2.4440   68.1069 N.2     1  ZINC000822449555   -0.0400
     25 N25        -9.6907    2.0462   67.1653 N.2     1  ZINC000822449555   -0.2500
     26 N26       -10.6920    0.8346   64.6803 N.ar    1  ZINC000822449555   -0.4500
     27 C27       -11.1533    0.3010   63.5704 C.ar    1  ZINC000822449555    0.1400
     28 H28        -9.4657   -4.2337   60.2659 H       1  ZINC000822449555    0.0800
     29 H29        -8.3653   -4.1830   58.8677 H       1  ZINC000822449555    0.0800
     30 H30        -8.3587   -2.8560   60.0542 H       1  ZINC000822449555    0.0700
     31 H31       -12.0238   -1.6571   54.5951 H       1  ZINC000822449555    0.0600
     32 H32       -10.4528   -2.4901   54.4989 H       1  ZINC000822449555    0.1000
     33 H33       -11.7972   -2.7570   52.4047 H       1  ZINC000822449555    0.1100
     34 H34       -11.4715   -4.3164   53.2005 H       1  ZINC000822449555    0.0600
     35 H35       -14.8649   -4.5087   54.5398 H       1  ZINC000822449555    0.1000
     36 H36       -13.3035   -5.3624   54.4755 H       1  ZINC000822449555    0.0600
     37 H37       -13.5637   -4.2663   56.6642 H       1  ZINC000822449555    0.1000
     38 H38       -13.8508   -2.7002   55.8666 H       1  ZINC000822449555    0.0600
     39 H39       -12.6947   -1.0902   56.6613 H       1  ZINC000822449555    0.1400
     40 H40       -11.8632   -0.0130   58.7373 H       1  ZINC000822449555    0.1500
     41 H41        -9.0910   -0.7622   60.3937 H       1  ZINC000822449555    0.4100
     42 H42        -8.2266   -0.8436   62.2766 H       1  ZINC000822449555    0.1600
     43 H43        -7.4265    0.1924   64.3837 H       1  ZINC000822449555    0.1600
     44 H44        -6.9139    2.3001   68.3529 H       1  ZINC000822449555    0.4800
     45 H45       -12.2115    0.3406   63.3581 H       1  ZINC000822449555    0.1700
@<TRIPOS>BOND
     1     1     2    1
     2     1    28    1
     3     1    29    1
     4     1    30    1
     5     2    13   ar
     6     2     3   ar
     7     3     4   ar
     8     4     5    1
     9     4    11   ar
    10     5    10    1
    11     5     6    1
    12     6     7    1
    13     6    31    1
    14     6    32    1
    15     7     8    1
    16     7    33    1
    17     7    34    1
    18     8     9    1
    19     9    10    1
    20     9    35    1
    21     9    36    1
    22    10    37    1
    23    10    38    1
    24    11    12   ar
    25    11    39    1
    26    12    13   ar
    27    12    40    1
    28    13    14    1
    29    14    15   am
    30    14    41    1
    31    15    16    2
    32    15    17    1
    33    17    27   ar
    34    17    18   ar
    35    18    19   ar
    36    18    42    1
    37    19    20   ar
    38    19    43    1
    39    20    21    1
    40    20    26   ar
    41    21    25    1
    42    21    22    2
    43    22    23    1
    44    23    24    1
    45    23    44    1
    46    24    25    2
    47    26    27   ar
    48    27    45    1
@<TRIPOS>SUBSTRUCTURE
     1 ZINC000822449555        1 TEMP              0 ****  ****    0 ROOT


##########                                Name:    ZINC000655982608
##########                DOCK_Rotatable_Bonds:                   5
##########                         Heavy_Atoms:                  29
##########                    Molecular_Weight:             388.469
##########                DOCK_Rotatable_Bonds:                   5
##########                       Formal_Charge:          -0.0200006
##########                     HBond_Acceptors:                   6
##########                        HBond_Donors:                   0
##########                         Heavy_Atoms:                  29
##########                          Grid_Score:          -32.887802
##########                     Grid_vdw_energy:          -33.702320
##########                      Grid_es_energy:            0.814519
##########           Internal_energy_repulsive:           50.638554

@<TRIPOS>MOLECULE
ZINC000655982608
 53 57 1 0 0
SMALL
USER_CHARGES


@<TRIPOS>ATOM
      1 C1        -13.1013   -3.1684   55.9031 C.3     1  ZINC000655982608   -0.1900
      2 C2        -11.8201   -2.6426   55.2528 C.3     1  ZINC000655982608    0.0800
      3 H3        -11.1690   -3.4804   55.0032 H       1  ZINC000655982608    0.1000
      4 C4        -12.1736   -1.8739   53.9780 C.3     1  ZINC000655982608   -0.0300
      5 C5        -10.9418   -1.1862   53.4482 C.2     1  ZINC000655982608    0.2000
      6 N6        -10.6773    0.0968   53.5071 N.2     1  ZINC000655982608   -0.4800
      7 C7         -9.4799    0.2472   52.9133 C.2     1  ZINC000655982608    0.1700
      8 C8         -8.7336    1.5430   52.7264 C.3     1  ZINC000655982608   -0.0100
      9 H9         -9.4128    2.3433   52.4328 H       1  ZINC000655982608    0.1300
     10 C10        -7.9530    1.9215   54.0065 C.3     1  ZINC000655982608   -0.1400
     11 C11        -6.6687    2.5324   53.4908 C.2     1  ZINC000655982608    0.5200
     12 O12        -5.9066    3.2072   54.1503 O.2     1  ZINC000655982608   -0.5000
     13 N13        -6.4947    2.2181   52.1954 N.am    1  ZINC000655982608   -0.5600
     14 C14        -5.4070    2.6361   51.4209 C.ar    1  ZINC000655982608    0.1600
     15 C15        -5.2934    2.2222   50.1001 C.ar    1  ZINC000655982608   -0.1600
     16 C16        -4.2185    2.6364   49.3382 C.ar    1  ZINC000655982608   -0.0900
     17 C17        -3.2558    3.4621   49.8893 C.ar    1  ZINC000655982608   -0.1400
     18 C18        -3.3658    3.8756   51.2041 C.ar    1  ZINC000655982608   -0.0900
     19 C19        -4.4418    3.4703   51.9694 C.ar    1  ZINC000655982608   -0.1600
     20 C20        -7.5930    1.3806   51.6974 C.3     1  ZINC000655982608    0.1100
     21 N21        -9.0848   -0.9300   52.5306 N.2     1  ZINC000655982608   -0.3700
     22 O22        -9.9076   -1.7682   52.8335 O.3     1  ZINC000655982608    0.0900
     23 N23       -11.1280   -1.7466   56.1888 N.3     1  ZINC000655982608   -0.4700
     24 C24       -11.9578   -0.5628   56.5011 C.3     1  ZINC000655982608    0.0300
     25 C25       -11.5316   -0.2232   57.9479 C.3     1  ZINC000655982608   -0.0800
     26 C26       -11.0486   -1.5582   58.4788 C.ar    1  ZINC000655982608   -0.1400
     27 C27       -10.8111   -2.0001   59.7629 C.ar    1  ZINC000655982608   -0.0800
     28 C28       -10.3697   -3.2932   59.9807 C.ar    1  ZINC000655982608   -0.1400
     29 C29       -10.1675   -4.1419   58.9082 C.ar    1  ZINC000655982608   -0.0900
     30 C30       -10.4016   -3.7039   57.6211 C.ar    1  ZINC000655982608   -0.1400
     31 C31       -10.8433   -2.4019   57.3932 C.ar    1  ZINC000655982608    0.1000
     32 H32       -13.5567   -3.9173   55.2551 H       1  ZINC000655982608    0.0700
     33 H33       -12.8614   -3.6188   56.8662 H       1  ZINC000655982608    0.0700
     34 H34       -13.7985   -2.3437   56.0512 H       1  ZINC000655982608    0.0700
     35 H35       -12.5529   -2.5683   53.2284 H       1  ZINC000655982608    0.1200
     36 H36       -12.9371   -1.1292   54.2028 H       1  ZINC000655982608    0.1100
     37 H37        -8.5130    2.6495   54.5935 H       1  ZINC000655982608    0.1200
     38 H38        -7.7410    1.0327   54.6008 H       1  ZINC000655982608    0.1200
     39 H39        -6.0445    1.5767   49.6694 H       1  ZINC000655982608    0.1200
     40 H40        -4.1296    2.3149   48.3110 H       1  ZINC000655982608    0.1300
     41 H41        -2.4161    3.7844   49.2914 H       1  ZINC000655982608    0.1200
     42 H42        -2.6120    4.5200   51.6318 H       1  ZINC000655982608    0.1300
     43 H43        -4.5271    3.7936   52.9963 H       1  ZINC000655982608    0.1500
     44 H44        -7.2785    0.3383   51.6449 H       1  ZINC000655982608    0.0900
     45 H45        -7.9166    1.7275   50.7160 H       1  ZINC000655982608    0.1000
     46 H46       -11.7256    0.2611   55.8262 H       1  ZINC000655982608    0.1000
     47 H47       -13.0181   -0.8117   56.4587 H       1  ZINC000655982608    0.0700
     48 H48       -10.7237    0.5085   57.9507 H       1  ZINC000655982608    0.0900
     49 H49       -12.3822    0.1373   58.5263 H       1  ZINC000655982608    0.0800
     50 H50       -10.9694   -1.3361   60.5998 H       1  ZINC000655982608    0.1200
     51 H51       -10.1831   -3.6388   60.9868 H       1  ZINC000655982608    0.1200
     52 H52        -9.8246   -5.1517   59.0787 H       1  ZINC000655982608    0.1300
     53 H53       -10.2414   -4.3717   56.7876 H       1  ZINC000655982608    0.1200
@<TRIPOS>BOND
     1     1     2    1
     2     1    32    1
     3     1    33    1
     4     1    34    1
     5     2     3    1
     6     2     4    1
     7     2    23    1
     8     4     5    1
     9     4    35    1
    10     4    36    1
    11     5    22    1
    12     5     6    2
    13     6     7    1
    14     7     8    1
    15     7    21    2
    16     8     9    1
    17     8    20    1
    18     8    10    1
    19    10    11    1
    20    10    37    1
    21    10    38    1
    22    11    12    2
    23    11    13   am
    24    13    14    1
    25    13    20    1
    26    14    19   ar
    27    14    15   ar
    28    15    16   ar
    29    15    39    1
    30    16    17   ar
    31    16    40    1
    32    17    18   ar
    33    17    41    1
    34    18    19   ar
    35    18    42    1
    36    19    43    1
    37    20    44    1
    38    20    45    1
    39    21    22    1
    40    23    31    1
    41    23    24    1
    42    24    25    1
    43    24    46    1
    44    24    47    1
    45    25    26    1
    46    25    48    1
    47    25    49    1
    48    26    31   ar
    49    26    27   ar
    50    27    28   ar
    51    27    50    1
    52    28    29   ar
    53    28    51    1
    54    29    30   ar
    55    29    52    1
    56    30    31   ar
    57    30    53    1
@<TRIPOS>SUBSTRUCTURE
     1 ZINC000655982608        1 TEMP              0 ****  ****    0 ROOT


##########                                Name:    ZINC001199210165
##########                DOCK_Rotatable_Bonds:                   5
##########                         Heavy_Atoms:                  23
##########                    Molecular_Weight:             375.225
##########                DOCK_Rotatable_Bonds:                   5
##########                       Formal_Charge:         -0.00999999
##########                     HBond_Acceptors:                   6
##########                        HBond_Donors:                   2
##########                         Heavy_Atoms:                  23
##########                          Grid_Score:          -32.852280
##########                     Grid_vdw_energy:          -32.770111
##########                      Grid_es_energy:           -0.082167
##########           Internal_energy_repulsive:            7.785875

@<TRIPOS>MOLECULE
ZINC001199210165
 38 40 1 0 0
SMALL
USER_CHARGES


@<TRIPOS>ATOM
      1 C1         -2.8250    3.6273   50.8690 C.3     1  ZINC001199210165   -0.1700
      2 C2         -3.2529    2.6385   49.7827 C.3     1  ZINC001199210165    0.0800
      3 C3         -2.0121    2.0853   49.0790 C.3     1  ZINC001199210165   -0.1500
      4 O4         -3.9822    1.5632   50.3778 O.3     1  ZINC001199210165   -0.3000
      5 C5         -5.2887    1.7896   50.6652 C.ar    1  ZINC001199210165    0.3300
      6 C6         -6.0322    0.8046   51.3011 C.ar    1  ZINC001199210165   -0.1300
      7 C7         -7.3756    1.0525   51.5902 C.ar    1  ZINC001199210165   -0.0600
      8 C8         -8.2086    0.0323   52.2679 C.2     1  ZINC001199210165    0.5700
      9 O9         -7.7510   -1.0693   52.5000 O.2     1  ZINC001199210165   -0.4900
     10 N10        -9.4741    0.3257   52.6269 N.am    1  ZINC001199210165   -0.6600
     11 C11       -10.2604   -0.6372   53.2666 C.ar    1  ZINC001199210165    0.2000
     12 C12       -10.5920   -0.4775   54.6129 C.ar    1  ZINC001199210165   -0.1500
     13 C13       -11.3581   -1.4060   55.2530 C.ar    1  ZINC001199210165   -0.0200
     14 C14       -11.8177   -2.5300   54.5574 C.ar    1  ZINC001199210165   -0.1700
     15 C15       -12.6332   -3.6839   54.9255 C.2     1  ZINC001199210165    0.0900
     16 Br16      -13.3807   -4.0222   56.6293 Br      1  ZINC001199210165    0.0600
     17 N17       -12.7544   -4.4385   53.8704 N.2     1  ZINC001199210165   -0.2100
     18 N18       -12.0678   -3.8709   52.7922 N.pl3   1  ZINC001199210165   -0.4900
     19 C19       -11.4868   -2.6976   53.1984 C.ar    1  ZINC001199210165    0.1500
     20 C20       -10.7084   -1.7377   52.5590 C.ar    1  ZINC001199210165   -0.1700
     21 C21        -7.9137    2.2911   51.2228 C.ar    1  ZINC001199210165   -0.1900
     22 C22        -7.1045    3.2151   50.5935 C.ar    1  ZINC001199210165    0.1400
     23 N23        -5.8378    2.9479   50.3412 N.ar    1  ZINC001199210165   -0.5200
     24 H24        -2.1923    3.1174   51.5956 H       1  ZINC001199210165    0.0600
     25 H25        -2.2689    4.4475   50.4151 H       1  ZINC001199210165    0.0700
     26 H26        -3.7090    4.0213   51.3703 H       1  ZINC001199210165    0.0600
     27 H27        -3.8856    3.1483   49.0562 H       1  ZINC001199210165    0.0900
     28 H28        -1.3793    1.5755   49.8056 H       1  ZINC001199210165    0.0700
     29 H29        -2.3169    1.3809   48.3050 H       1  ZINC001199210165    0.0600
     30 H30        -1.4558    2.9055   48.6251 H       1  ZINC001199210165    0.0800
     31 H31        -5.5788   -0.1387   51.5676 H       1  ZINC001199210165    0.1600
     32 H32        -9.8394    1.2051   52.4417 H       1  ZINC001199210165    0.4100
     33 H33       -10.2384    0.3888   55.1524 H       1  ZINC001199210165    0.1500
     34 H34       -11.6095   -1.2745   56.2951 H       1  ZINC001199210165    0.1400
     35 H35       -12.0120   -4.2471   51.8998 H       1  ZINC001199210165    0.4500
     36 H36       -10.4527   -1.8532   51.5161 H       1  ZINC001199210165    0.1400
     37 H37        -8.9487    2.5207   51.4288 H       1  ZINC001199210165    0.1400
     38 H38        -7.5134    4.1727   50.3070 H       1  ZINC001199210165    0.1700
@<TRIPOS>BOND
     1     1     2    1
     2     1    24    1
     3     1    25    1
     4     1    26    1
     5     2     3    1
     6     2     4    1
     7     2    27    1
     8     3    28    1
     9     3    29    1
    10     3    30    1
    11     4     5    1
    12     5    23   ar
    13     5     6   ar
    14     6     7   ar
    15     6    31    1
    16     7     8    1
    17     7    21   ar
    18     8     9    2
    19     8    10   am
    20    10    11    1
    21    10    32    1
    22    11    20   ar
    23    11    12   ar
    24    12    13   ar
    25    12    33    1
    26    13    14   ar
    27    13    34    1
    28    14    19   ar
    29    14    15    1
    30    15    16    1
    31    15    17    2
    32    17    18    1
    33    18    19    1
    34    18    35    1
    35    19    20   ar
    36    20    36    1
    37    21    22   ar
    38    21    37    1
    39    22    23   ar
    40    22    38    1
@<TRIPOS>SUBSTRUCTURE
     1 ZINC001199210165        1 TEMP              0 ****  ****    0 ROOT


##########                                Name:    ZINC001271977984
##########                DOCK_Rotatable_Bonds:                   7
##########                         Heavy_Atoms:                  24
##########                    Molecular_Weight:             328.371
##########                DOCK_Rotatable_Bonds:                   7
##########                       Formal_Charge:           0.0200001
##########                     HBond_Acceptors:                   7
##########                        HBond_Donors:                   0
##########                         Heavy_Atoms:                  24
##########                          Grid_Score:          -32.835468
##########                     Grid_vdw_energy:          -31.995550
##########                      Grid_es_energy:           -0.839917
##########           Internal_energy_repulsive:           23.511858

@<TRIPOS>MOLECULE
ZINC001271977984
 44 46 1 0 0
SMALL
USER_CHARGES


@<TRIPOS>ATOM
      1 C1        -14.0737   -5.6531   56.4995 C.3     1  ZINC001271977984   -0.1800
      2 C2        -14.3683   -4.1695   56.7294 C.3     1  ZINC001271977984    0.1700
      3 H3        -15.3472   -4.0616   57.1965 H       1  ZINC001271977984    0.1100
      4 C4        -13.3138   -3.5818   57.6313 C.2     1  ZINC001271977984    0.2700
      5 N5        -13.5292   -2.6650   58.5262 N.2     1  ZINC001271977984   -0.4700
      6 C6        -12.3549   -2.3768   59.1501 C.ar    1  ZINC001271977984    0.0200
      7 C7        -11.9933   -1.4938   60.1684 C.ar    1  ZINC001271977984   -0.0600
      8 C8        -10.6833   -1.4361   60.5893 C.ar    1  ZINC001271977984   -0.1200
      9 C9         -9.7225   -2.2496   60.0076 C.ar    1  ZINC001271977984   -0.0900
     10 C10       -10.0655   -3.1268   58.9997 C.ar    1  ZINC001271977984   -0.0900
     11 C11       -11.3795   -3.1984   58.5640 C.ar    1  ZINC001271977984    0.0100
     12 O12       -12.0187   -3.9349   57.6288 O.3     1  ZINC001271977984   -0.2100
     13 N13       -14.3599   -3.4633   55.4412 N.3     1  ZINC001271977984   -0.5300
     14 C14       -15.4063   -2.4331   55.3988 C.3     1  ZINC001271977984    0.0000
     15 C15       -13.0385   -2.8830   55.1675 C.3     1  ZINC001271977984    0.0400
     16 C16       -12.9922   -2.3782   53.7239 C.3     1  ZINC001271977984    0.1200
     17 N17       -11.5970   -2.2091   53.3102 N.am    1  ZINC001271977984   -0.6000
     18 C18       -10.8281   -3.3632   52.8379 C.3     1  ZINC001271977984    0.0800
     19 C19       -11.0209   -0.9919   53.3642 C.2     1  ZINC001271977984    0.6000
     20 O20       -11.6593   -0.0340   53.7563 O.2     1  ZINC001271977984   -0.5300
     21 C21        -9.6170   -0.8218   52.9479 C.2     1  ZINC001271977984   -0.0800
     22 C22        -8.7285    0.0788   53.4495 C.2     1  ZINC001271977984    0.0200
     23 O23        -7.5715   -0.1061   52.7938 O.3     1  ZINC001271977984   -0.2000
     24 C24        -7.7450   -1.0981   51.9090 C.2     1  ZINC001271977984    0.1800
     25 N25        -8.9641   -1.5394   51.9939 N.2     1  ZINC001271977984   -0.4600
     26 H26       -14.8364   -6.0782   55.8471 H       1  ZINC001271977984    0.0800
     27 H27       -13.0948   -5.7610   56.0324 H       1  ZINC001271977984    0.0800
     28 H28       -14.0799   -6.1772   57.4552 H       1  ZINC001271977984    0.0700
     29 H29       -12.7378   -0.8580   60.6244 H       1  ZINC001271977984    0.1400
     30 H30       -10.4023   -0.7528   61.3771 H       1  ZINC001271977984    0.1400
     31 H31        -8.6982   -2.1956   60.3459 H       1  ZINC001271977984    0.1400
     32 H32        -9.3117   -3.7572   58.5514 H       1  ZINC001271977984    0.1400
     33 H33       -15.2358   -1.7090   56.1956 H       1  ZINC001271977984    0.0300
     34 H34       -15.3779   -1.9259   54.4345 H       1  ZINC001271977984    0.0700
     35 H35       -16.3818   -2.9002   55.5351 H       1  ZINC001271977984    0.1100
     36 H36       -12.8586   -2.0515   55.8491 H       1  ZINC001271977984    0.0500
     37 H37       -12.2708   -3.6433   55.3114 H       1  ZINC001271977984    0.0800
     38 H38       -13.4799   -3.1015   53.0704 H       1  ZINC001271977984    0.0900
     39 H39       -13.5096   -1.4212   53.6569 H       1  ZINC001271977984    0.0900
     40 H40       -10.8695   -3.4066   51.7495 H       1  ZINC001271977984    0.0600
     41 H41        -9.7909   -3.2645   53.1584 H       1  ZINC001271977984    0.0900
     42 H42       -11.2517   -4.2771   53.2544 H       1  ZINC001271977984    0.0700
     43 H43        -8.9179    0.8042   54.2267 H       1  ZINC001271977984    0.2300
     44 H44        -6.9896   -1.4734   51.2344 H       1  ZINC001271977984    0.2600
@<TRIPOS>BOND
     1     1     2    1
     2     1    26    1
     3     1    27    1
     4     1    28    1
     5     2     3    1
     6     2     4    1
     7     2    13    1
     8     4    12    1
     9     4     5    2
    10     5     6    1
    11     6    11   ar
    12     6     7   ar
    13     7     8   ar
    14     7    29    1
    15     8     9   ar
    16     8    30    1
    17     9    10   ar
    18     9    31    1
    19    10    11   ar
    20    10    32    1
    21    11    12    1
    22    13    14    1
    23    13    15    1
    24    14    33    1
    25    14    34    1
    26    14    35    1
    27    15    16    1
    28    15    36    1
    29    15    37    1
    30    16    17    1
    31    16    38    1
    32    16    39    1
    33    17    18    1
    34    17    19   am
    35    18    40    1
    36    18    41    1
    37    18    42    1
    38    19    20    2
    39    19    21    1
    40    21    25    1
    41    21    22    2
    42    22    23    1
    43    22    43    1
    44    23    24    1
    45    24    25    2
    46    24    44    1
@<TRIPOS>SUBSTRUCTURE
     1 ZINC001271977984        1 TEMP              0 ****  ****    0 ROOT


##########                                Name:    ZINC000680410869
##########                DOCK_Rotatable_Bonds:                   6
##########                         Heavy_Atoms:                  24
##########                    Molecular_Weight:             335.354
##########                DOCK_Rotatable_Bonds:                   6
##########                       Formal_Charge:        -1.04308e-07
##########                     HBond_Acceptors:                   7
##########                        HBond_Donors:                   0
##########                         Heavy_Atoms:                  24
##########                          Grid_Score:          -32.819908
##########                     Grid_vdw_energy:          -31.888020
##########                      Grid_es_energy:           -0.931887
##########           Internal_energy_repulsive:           14.607235

@<TRIPOS>MOLECULE
ZINC000680410869
 43 45 1 0 0
SMALL
USER_CHARGES


@<TRIPOS>ATOM
      1 O1         -5.6260   -0.0602   50.1000 O.2     1  ZINC000680410869   -0.5200
      2 C2         -5.7284    1.0054   50.6762 C.2     1  ZINC000680410869    0.6100
      3 C3         -6.9601    1.3237   51.4268 C.2     1  ZINC000680410869    0.0100
      4 N4         -7.4182    0.6896   52.4877 N.2     1  ZINC000680410869   -0.2500
      5 N5         -8.5125    1.2314   52.8868 N.pl3   1  ZINC000680410869   -0.3500
      6 C6         -9.2963    0.7845   54.0410 C.3     1  ZINC000680410869    0.5000
      7 F7         -9.8721    1.8930   54.6711 F       1  ZINC000680410869   -0.1600
      8 F8        -10.3054   -0.0840   53.6114 F       1  ZINC000680410869   -0.1700
      9 C9         -8.8360    2.2724   52.0899 C.2     1  ZINC000680410869    0.0100
     10 C10        -7.8696    2.3711   51.1472 C.2     1  ZINC000680410869   -0.1700
     11 N11        -4.7160    1.8940   50.6347 N.am    1  ZINC000680410869   -0.6000
     12 C12        -3.4793    1.5993   49.8935 C.3     1  ZINC000680410869    0.0800
     13 C13        -2.2863    1.8636   50.8191 C.3     1  ZINC000680410869    0.0500
     14 O14        -2.3991    3.1785   51.3687 O.3     1  ZINC000680410869   -0.3700
     15 C15        -3.5565    3.3746   52.1845 C.3     1  ZINC000680410869    0.0800
     16 H16        -3.5572    2.6473   52.9965 H       1  ZINC000680410869    0.0600
     17 C17        -3.5382    4.7897   52.7660 C.3     1  ZINC000680410869   -0.1000
     18 C18        -4.1387    4.7707   54.1730 C.3     1  ZINC000680410869   -0.0800
     19 C19        -3.3343    3.8463   55.0502 C.ar    1  ZINC000680410869   -0.0800
     20 C20        -3.9777    2.9629   55.8966 C.ar    1  ZINC000680410869   -0.1200
     21 C21        -3.2398    2.1149   56.7012 C.ar    1  ZINC000680410869   -0.1200
     22 C22        -1.8585    2.1500   56.6590 C.ar    1  ZINC000680410869   -0.1300
     23 C23        -1.2152    3.0329   55.8119 C.ar    1  ZINC000680410869   -0.1200
     24 C24        -1.9530    3.8778   55.0042 C.ar    1  ZINC000680410869   -0.1200
     25 C25        -4.8170    3.1900   51.3241 C.3     1  ZINC000680410869    0.0600
     26 H26        -8.6447    0.2651   54.7436 H       1  ZINC000680410869    0.1700
     27 H27        -9.7020    2.9101   52.1888 H       1  ZINC000680410869    0.1900
     28 H28        -7.8086    3.0935   50.3468 H       1  ZINC000680410869    0.1700
     29 H29        -3.4781    0.5548   49.5821 H       1  ZINC000680410869    0.1000
     30 H30        -3.4141    2.2443   49.0172 H       1  ZINC000680410869    0.0800
     31 H31        -2.2823    1.1308   51.6261 H       1  ZINC000680410869    0.0600
     32 H32        -1.3598    1.7850   50.2503 H       1  ZINC000680410869    0.1100
     33 H33        -2.5103    5.1493   52.8144 H       1  ZINC000680410869    0.0800
     34 H34        -4.1251    5.4517   52.1293 H       1  ZINC000680410869    0.0800
     35 H35        -4.1178    5.7774   54.5906 H       1  ZINC000680410869    0.0700
     36 H36        -5.1693    4.4193   54.1235 H       1  ZINC000680410869    0.0800
     37 H37        -5.0569    2.9354   55.9296 H       1  ZINC000680410869    0.1200
     38 H38        -3.7425    1.4252   57.3630 H       1  ZINC000680410869    0.1200
     39 H39        -1.2820    1.4881   57.2882 H       1  ZINC000680410869    0.1200
     40 H40        -0.1360    3.0606   55.7791 H       1  ZINC000680410869    0.1200
     41 H41        -1.4504    4.5676   54.3423 H       1  ZINC000680410869    0.1200
     42 H42        -4.8841    3.9963   50.5937 H       1  ZINC000680410869    0.0800
     43 H43        -5.7010    3.1971   51.9618 H       1  ZINC000680410869    0.1300
@<TRIPOS>BOND
     1     1     2    2
     2     2     3    1
     3     2    11   am
     4     3    10    1
     5     3     4    2
     6     4     5    1
     7     5     6    1
     8     5     9    1
     9     6     7    1
    10     6     8    1
    11     6    26    1
    12     9    10    2
    13     9    27    1
    14    10    28    1
    15    11    25    1
    16    11    12    1
    17    12    13    1
    18    12    29    1
    19    12    30    1
    20    13    14    1
    21    13    31    1
    22    13    32    1
    23    14    15    1
    24    15    16    1
    25    15    17    1
    26    15    25    1
    27    17    18    1
    28    17    33    1
    29    17    34    1
    30    18    19    1
    31    18    35    1
    32    18    36    1
    33    19    24   ar
    34    19    20   ar
    35    20    21   ar
    36    20    37    1
    37    21    22   ar
    38    21    38    1
    39    22    23   ar
    40    22    39    1
    41    23    24   ar
    42    23    40    1
    43    24    41    1
    44    25    42    1
    45    25    43    1
@<TRIPOS>SUBSTRUCTURE
     1 ZINC000680410869        1 TEMP              0 ****  ****    0 ROOT


##########                                Name:    ZINC000465392830
##########                DOCK_Rotatable_Bonds:                   8
##########                         Heavy_Atoms:                  29
##########                    Molecular_Weight:             419.588
##########                DOCK_Rotatable_Bonds:                   8
##########                       Formal_Charge:           0.0199996
##########                     HBond_Acceptors:                   7
##########                        HBond_Donors:                   0
##########                         Heavy_Atoms:                  29
##########                          Grid_Score:          -32.804413
##########                     Grid_vdw_energy:          -31.842020
##########                      Grid_es_energy:           -0.962392
##########           Internal_energy_repulsive:           30.532612

@<TRIPOS>MOLECULE
ZINC000465392830
 62 64 1 0 0
SMALL
USER_CHARGES


@<TRIPOS>ATOM
      1 C1        -13.8168    1.0329   59.9665 C.3     1  ZINC000465392830    0.0400
      2 O2        -12.5538    0.6586   60.5775 O.3     1  ZINC000465392830   -0.3600
      3 C3        -11.4857    1.4158   60.2819 C.2     1  ZINC000465392830    0.4600
      4 O4        -11.6023    2.3608   59.5380 O.2     1  ZINC000465392830   -0.4900
      5 C5        -10.1411    1.0874   60.8779 C.3     1  ZINC000465392830    0.1500
      6 H6         -9.3491    1.3741   60.1861 H       1  ZINC000465392830    0.1100
      7 C7         -9.9640    1.8337   62.2170 C.3     1  ZINC000465392830   -0.1100
      8 C8         -9.2287    0.7918   63.1009 C.3     1  ZINC000465392830   -0.0900
      9 H9         -8.1562    0.8021   62.9065 H       1  ZINC000465392830    0.1000
     10 C10        -9.5164    1.0308   64.5845 C.3     1  ZINC000465392830   -0.0800
     11 C11        -8.7760   -0.0136   65.4223 C.3     1  ZINC000465392830   -0.1200
     12 C12        -9.0637    0.2252   66.9058 C.3     1  ZINC000465392830   -0.1200
     13 C13        -8.5874    1.6252   67.2987 C.3     1  ZINC000465392830   -0.1200
     14 C14        -9.3279    2.6696   66.4610 C.3     1  ZINC000465392830   -0.1200
     15 C15        -9.0402    2.4306   64.9774 C.3     1  ZINC000465392830   -0.1200
     16 C16        -9.8682   -0.5334   62.6168 C.3     1  ZINC000465392830    0.1000
     17 N17       -10.0589   -0.3527   61.1629 N.am    1  ZINC000465392830   -0.6100
     18 C18       -10.1461   -1.3431   60.2529 C.2     1  ZINC000465392830    0.5400
     19 O19       -10.0639   -2.5003   60.6063 O.2     1  ZINC000465392830   -0.5300
     20 C20       -10.3457   -1.0124   58.7963 C.3     1  ZINC000465392830   -0.1300
     21 C21       -11.6904   -1.5709   58.3261 C.3     1  ZINC000465392830   -0.0600
     22 C22       -11.5919   -1.9616   56.8740 C.ar    1  ZINC000465392830   -0.2000
     23 C23       -11.2125   -3.2443   56.5100 C.ar    1  ZINC000465392830    0.2000
     24 C24       -10.8916   -4.2725   57.5639 C.3     1  ZINC000465392830   -0.1100
     25 N25       -11.1358   -3.5548   55.2267 N.ar    1  ZINC000465392830   -0.5000
     26 C26       -11.4169   -2.6557   54.2942 C.ar    1  ZINC000465392830    0.3000
     27 S27       -11.3018   -3.1124   52.5963 S.3     1  ZINC000465392830    0.0000
     28 C28       -12.1919   -1.7308   51.8380 C.3     1  ZINC000465392830   -0.1400
     29 N29       -11.7831   -1.4212   54.6088 N.ar    1  ZINC000465392830   -0.5300
     30 C30       -11.8844   -1.0477   55.8735 C.ar    1  ZINC000465392830    0.2000
     31 C31       -12.3013    0.3577   56.2226 C.3     1  ZINC000465392830   -0.1100
     32 H32       -14.0820    2.0452   60.2715 H       1  ZINC000465392830    0.0600
     33 H33       -13.7211    0.9936   58.8814 H       1  ZINC000465392830    0.0600
     34 H34       -14.5951    0.3409   60.2880 H       1  ZINC000465392830    0.1000
     35 H35        -9.3526    2.7261   62.0831 H       1  ZINC000465392830    0.1000
     36 H36       -10.9324    2.0894   62.6470 H       1  ZINC000465392830    0.0800
     37 H37       -10.5883    0.9477   64.7647 H       1  ZINC000465392830    0.0800
     38 H38        -9.1152   -1.0109   65.1423 H       1  ZINC000465392830    0.0600
     39 H39        -7.7041    0.0694   65.2421 H       1  ZINC000465392830    0.0700
     40 H40       -10.1355    0.1422   67.0860 H       1  ZINC000465392830    0.0600
     41 H41        -8.5361   -0.5188   67.5027 H       1  ZINC000465392830    0.0600
     42 H42        -8.7925    1.7954   68.3556 H       1  ZINC000465392830    0.0600
     43 H43        -7.5156    1.7082   67.1185 H       1  ZINC000465392830    0.0600
     44 H44       -10.3998    2.5866   66.6411 H       1  ZINC000465392830    0.0600
     45 H45        -8.9886    3.6670   66.7408 H       1  ZINC000465392830    0.0600
     46 H46        -7.9684    2.5138   64.7971 H       1  ZINC000465392830    0.0700
     47 H47        -9.5678    3.1748   64.3805 H       1  ZINC000465392830    0.0600
     48 H48        -9.1973   -1.3707   62.8088 H       1  ZINC000465392830    0.0900
     49 H49       -10.8273   -0.6939   63.1093 H       1  ZINC000465392830    0.0800
     50 H50       -10.3357    0.0697   58.6647 H       1  ZINC000465392830    0.1000
     51 H51        -9.5422   -1.4572   58.2092 H       1  ZINC000465392830    0.1000
     52 H52       -11.9480   -2.4469   58.9214 H       1  ZINC000465392830    0.0900
     53 H53       -12.4617   -0.8102   58.4463 H       1  ZINC000465392830    0.0900
     54 H54       -11.7987   -4.8151   57.8301 H       1  ZINC000465392830    0.0900
     55 H55       -10.1507   -4.9716   57.1759 H       1  ZINC000465392830    0.0900
     56 H56       -10.4933   -3.7747   58.4480 H       1  ZINC000465392830    0.0900
     57 H57       -13.2121   -1.7022   52.2208 H       1  ZINC000465392830    0.0900
     58 H58       -11.6865   -0.7961   52.0806 H       1  ZINC000465392830    0.0900
     59 H59       -12.2133   -1.8624   50.7562 H       1  ZINC000465392830    0.1100
     60 H60       -13.3865    0.4024   56.3148 H       1  ZINC000465392830    0.0900
     61 H61       -11.8441    0.6479   57.1686 H       1  ZINC000465392830    0.0900
     62 H62       -11.9750    1.0393   55.4371 H       1  ZINC000465392830    0.0800
@<TRIPOS>BOND
     1     1     2    1
     2     1    32    1
     3     1    33    1
     4     1    34    1
     5     2     3    1
     6     3     4    2
     7     3     5    1
     8     5     6    1
     9     5    17    1
    10     5     7    1
    11     7     8    1
    12     7    35    1
    13     7    36    1
    14     8     9    1
    15     8    10    1
    16     8    16    1
    17    10    15    1
    18    10    11    1
    19    10    37    1
    20    11    12    1
    21    11    38    1
    22    11    39    1
    23    12    13    1
    24    12    40    1
    25    12    41    1
    26    13    14    1
    27    13    42    1
    28    13    43    1
    29    14    15    1
    30    14    44    1
    31    14    45    1
    32    15    46    1
    33    15    47    1
    34    16    17    1
    35    16    48    1
    36    16    49    1
    37    17    18   am
    38    18    19    2
    39    18    20    1
    40    20    21    1
    41    20    50    1
    42    20    51    1
    43    21    22    1
    44    21    52    1
    45    21    53    1
    46    22    30   ar
    47    22    23   ar
    48    23    24    1
    49    23    25   ar
    50    24    54    1
    51    24    55    1
    52    24    56    1
    53    25    26   ar
    54    26    27    1
    55    26    29   ar
    56    27    28    1
    57    28    57    1
    58    28    58    1
    59    28    59    1
    60    29    30   ar
    61    30    31    1
    62    31    60    1
    63    31    61    1
    64    31    62    1
@<TRIPOS>SUBSTRUCTURE
     1 ZINC000465392830        1 TEMP              0 ****  ****    0 ROOT


##########                                Name:    ZINC000422507946
##########                DOCK_Rotatable_Bonds:                   7
##########                         Heavy_Atoms:                  25
##########                    Molecular_Weight:             364.484
##########                DOCK_Rotatable_Bonds:                   7
##########                       Formal_Charge:          0.00999952
##########                     HBond_Acceptors:                   6
##########                        HBond_Donors:                   1
##########                         Heavy_Atoms:                  25
##########                          Grid_Score:          -32.748440
##########                     Grid_vdw_energy:          -29.831553
##########                      Grid_es_energy:           -2.916886
##########           Internal_energy_repulsive:           32.436829

@<TRIPOS>MOLECULE
ZINC000422507946
 50 52 1 0 0
SMALL
USER_CHARGES


@<TRIPOS>ATOM
      1 C1          3.1426    3.7317   48.9146 C.3     1  ZINC000422507946   -0.1400
      2 C2          2.1666    2.5739   48.6965 C.3     1  ZINC000422507946   -0.0400
      3 H3          2.4586    1.9912   47.8229 H       1  ZINC000422507946    0.1100
      4 C4          0.7282    3.1070   48.5311 C.3     1  ZINC000422507946   -0.1400
      5 C5         -0.2544    2.0854   49.1294 C.3     1  ZINC000422507946    0.1400
      6 H6         -0.3161    1.2074   48.4866 H       1  ZINC000422507946    0.1100
      7 N7         -1.5798    2.6923   49.2757 N.am    1  ZINC000422507946   -0.6900
      8 C8         -2.6191    1.9468   49.7007 C.2     1  ZINC000422507946    0.5100
      9 O9         -2.4567    0.7734   49.9637 O.2     1  ZINC000422507946   -0.5000
     10 C10        -3.9715    2.5655   49.8482 C.2     1  ZINC000422507946    0.5100
     11 O11        -4.8255    2.3640   49.0101 O.2     1  ZINC000422507946   -0.5200
     12 N12        -4.2424    3.3472   50.9122 N.am    1  ZINC000422507946   -0.5700
     13 C13        -5.5682    3.9537   51.0568 C.3     1  ZINC000422507946    0.1400
     14 C14        -6.4278    3.0792   51.9329 C.ar    1  ZINC000422507946   -0.0800
     15 C15        -7.1676    3.6413   52.9563 C.ar    1  ZINC000422507946   -0.1100
     16 C16        -7.9568    2.8403   53.7609 C.ar    1  ZINC000422507946   -0.0900
     17 C17        -8.0068    1.4768   53.5426 C.ar    1  ZINC000422507946   -0.1500
     18 C18        -7.2664    0.9127   52.5173 C.ar    1  ZINC000422507946    0.1000
     19 F19        -7.3145   -0.4203   52.3030 F       1  ZINC000422507946   -0.1400
     20 C20        -6.4807    1.7164   51.7090 C.ar    1  ZINC000422507946   -0.1500
     21 C21        -3.2113    3.5904   51.9241 C.3     1  ZINC000422507946    0.1400
     22 C22        -3.1482    5.0940   52.2633 C.3     1  ZINC000422507946   -0.1200
     23 C23        -4.0362    5.2367   53.5243 C.3     1  ZINC000422507946   -0.1300
     24 C24        -3.7144    3.9453   54.3167 C.3     1  ZINC000422507946   -0.1200
     25 C25        -3.5714    2.8601   53.2297 C.3     1  ZINC000422507946   -0.1600
     26 C26         0.3027    1.6854   50.5209 C.3     1  ZINC000422507946   -0.0900
     27 S27         2.1001    1.5066   50.1827 S.3     1  ZINC000422507946   -0.2700
     28 H28         4.1484    3.3369   49.0581 H       1  ZINC000422507946    0.0700
     29 H29         3.1303    4.3865   48.0432 H       1  ZINC000422507946    0.0700
     30 H30         2.8446    4.2968   49.7978 H       1  ZINC000422507946    0.0700
     31 H31         0.6287    4.0590   49.0525 H       1  ZINC000422507946    0.0900
     32 H32         0.5098    3.2480   47.4726 H       1  ZINC000422507946    0.0900
     33 H33        -1.7093    3.6306   49.0666 H       1  ZINC000422507946    0.4100
     34 H34        -5.4693    4.9390   51.5124 H       1  ZINC000422507946    0.1100
     35 H35        -6.0317    4.0521   50.0752 H       1  ZINC000422507946    0.1000
     36 H36        -7.1288    4.7069   53.1278 H       1  ZINC000422507946    0.1400
     37 H37        -8.5340    3.2805   54.5604 H       1  ZINC000422507946    0.1300
     38 H38        -8.6227    0.8513   54.1717 H       1  ZINC000422507946    0.1400
     39 H39        -5.9031    1.2775   50.9088 H       1  ZINC000422507946    0.1400
     40 H40        -2.2428    3.2481   51.5596 H       1  ZINC000422507946    0.1100
     41 H41        -2.1231    5.3929   52.4827 H       1  ZINC000422507946    0.0800
     42 H42        -3.5522    5.6875   51.4431 H       1  ZINC000422507946    0.0600
     43 H43        -3.7556    6.1210   54.0964 H       1  ZINC000422507946    0.0700
     44 H44        -5.0911    5.2700   53.2520 H       1  ZINC000422507946    0.0600
     45 H45        -2.7809    4.0586   54.8678 H       1  ZINC000422507946    0.0700
     46 H46        -4.5317    3.7005   54.9951 H       1  ZINC000422507946    0.0700
     47 H47        -4.5133    2.3247   53.1105 H       1  ZINC000422507946    0.0900
     48 H48        -2.7773    2.1639   53.4993 H       1  ZINC000422507946    0.0800
     49 H49         0.1210    2.4725   51.2527 H       1  ZINC000422507946    0.1000
     50 H50        -0.1249    0.7392   50.8528 H       1  ZINC000422507946    0.1100
@<TRIPOS>BOND
     1     1     2    1
     2     1    28    1
     3     1    29    1
     4     1    30    1
     5     2     3    1
     6     2    27    1
     7     2     4    1
     8     4     5    1
     9     4    31    1
    10     4    32    1
    11     5     6    1
    12     5     7    1
    13     5    26    1
    14     7     8   am
    15     7    33    1
    16     8     9    2
    17     8    10    1
    18    10    11    2
    19    10    12   am
    20    12    13    1
    21    12    21    1
    22    13    14    1
    23    13    34    1
    24    13    35    1
    25    14    20   ar
    26    14    15   ar
    27    15    16   ar
    28    15    36    1
    29    16    17   ar
    30    16    37    1
    31    17    18   ar
    32    17    38    1
    33    18    19    1
    34    18    20   ar
    35    20    39    1
    36    21    25    1
    37    21    22    1
    38    21    40    1
    39    22    23    1
    40    22    41    1
    41    22    42    1
    42    23    24    1
    43    23    43    1
    44    23    44    1
    45    24    25    1
    46    24    45    1
    47    24    46    1
    48    25    47    1
    49    25    48    1
    50    26    27    1
    51    26    49    1
    52    26    50    1
@<TRIPOS>SUBSTRUCTURE
     1 ZINC000422507946        1 TEMP              0 ****  ****    0 ROOT


##########                                Name:    ZINC000800038938
##########                DOCK_Rotatable_Bonds:                   6
##########                         Heavy_Atoms:                  25
##########                    Molecular_Weight:             386.274
##########                DOCK_Rotatable_Bonds:                   6
##########                       Formal_Charge:           0.0200003
##########                     HBond_Acceptors:                   7
##########                        HBond_Donors:                   0
##########                         Heavy_Atoms:                  25
##########                          Grid_Score:          -32.719849
##########                     Grid_vdw_energy:          -31.587854
##########                      Grid_es_energy:           -1.131995
##########           Internal_energy_repulsive:           13.528754

@<TRIPOS>MOLECULE
ZINC000800038938
 46 48 1 0 0
SMALL
USER_CHARGES


@<TRIPOS>ATOM
      1 C1        -15.5276   -1.3542   65.4409 C.3     1  ZINC000800038938    0.0300
      2 O2        -16.1633   -0.6291   64.3862 O.3     1  ZINC000800038938   -0.3800
      3 C3        -15.2733    0.1905   63.6258 C.3     1  ZINC000800038938    0.0900
      4 H4        -14.7807    0.9115   64.2783 H       1  ZINC000800038938    0.0700
      5 C5        -16.0515    0.9274   62.5163 C.3     1  ZINC000800038938   -0.1400
      6 C6        -15.0764    0.9407   61.3130 C.3     1  ZINC000800038938   -0.1400
      7 C7        -14.4012   -0.4502   61.4049 C.3     1  ZINC000800038938    0.0900
      8 H8        -15.0450   -1.2162   60.9727 H       1  ZINC000800038938    0.0900
      9 O9        -13.1124   -0.4348   60.7361 O.3     1  ZINC000800038938   -0.3500
     10 C10       -12.4958   -1.6160   60.5739 C.2     1  ZINC000800038938    0.4500
     11 O11       -12.9999   -2.6251   61.0070 O.2     1  ZINC000800038938   -0.4800
     12 C12       -11.1747   -1.6835   59.8520 C.3     1  ZINC000800038938    0.1500
     13 H13       -10.7404   -0.6864   59.7802 H       1  ZINC000800038938    0.1200
     14 C14       -10.2110   -2.6226   60.6077 C.3     1  ZINC000800038938   -0.1200
     15 C15        -9.4698   -3.3571   59.4594 C.3     1  ZINC000800038938   -0.1300
     16 C16       -10.5940   -3.4968   58.4029 C.3     1  ZINC000800038938    0.0900
     17 N17       -11.3685   -2.2427   58.5062 N.am    1  ZINC000800038938   -0.6000
     18 C18       -12.1270   -1.7053   57.5304 C.2     1  ZINC000800038938    0.5800
     19 O19       -12.7233   -0.6645   57.7276 O.2     1  ZINC000800038938   -0.4900
     20 C20       -12.2340   -2.3814   56.2207 C.ar    1  ZINC000800038938   -0.1100
     21 C21       -11.4400   -1.9662   55.1505 C.ar    1  ZINC000800038938   -0.0700
     22 C22       -11.5450   -2.6022   53.9297 C.ar    1  ZINC000800038938   -0.0400
     23 Cl23      -10.5580   -2.0876   52.5974 Cl      1  ZINC000800038938   -0.0500
     24 C24       -12.4355   -3.6500   53.7654 C.ar    1  ZINC000800038938   -0.0700
     25 C25       -13.2255   -4.0664   54.8214 C.ar    1  ZINC000800038938   -0.1000
     26 C26       -13.1263   -3.4431   56.0498 C.ar    1  ZINC000800038938    0.0100
     27 Cl27      -14.1188   -3.9672   57.3742 Cl      1  ZINC000800038938   -0.0300
     28 C28       -14.2232   -0.6853   62.9202 C.3     1  ZINC000800038938   -0.1200
     29 H29       -16.2701   -1.9516   65.9699 H       1  ZINC000800038938    0.0900
     30 H30       -14.7645   -2.0103   65.0222 H       1  ZINC000800038938    0.0400
     31 H31       -15.0634   -0.6536   66.1350 H       1  ZINC000800038938    0.0400
     32 H32       -16.9620    0.3840   62.2636 H       1  ZINC000800038938    0.0800
     33 H33       -16.2875    1.9452   62.8273 H       1  ZINC000800038938    0.0800
     34 H34       -15.6218    1.0441   60.3749 H       1  ZINC000800038938    0.0800
     35 H35       -14.3390    1.7360   61.4220 H       1  ZINC000800038938    0.0800
     36 H36        -9.5102   -2.0491   61.2144 H       1  ZINC000800038938    0.1000
     37 H37       -10.7660   -3.3304   61.2233 H       1  ZINC000800038938    0.0900
     38 H38        -8.6467   -2.7536   59.0767 H       1  ZINC000800038938    0.0900
     39 H39        -9.1163   -4.3353   59.7854 H       1  ZINC000800038938    0.1000
     40 H40       -10.1667   -3.5960   57.4051 H       1  ZINC000800038938    0.0900
     41 H41       -11.2263   -4.3544   58.6327 H       1  ZINC000800038938    0.0800
     42 H42       -10.7454   -1.1490   55.2770 H       1  ZINC000800038938    0.1500
     43 H43       -12.5136   -4.1441   52.8082 H       1  ZINC000800038938    0.1500
     44 H44       -13.9182   -4.8841   54.6864 H       1  ZINC000800038938    0.1500
     45 H45       -13.2205   -0.3894   63.2287 H       1  ZINC000800038938    0.0900
     46 H46       -14.3926   -1.7356   63.1576 H       1  ZINC000800038938    0.0900
@<TRIPOS>BOND
     1     1     2    1
     2     1    29    1
     3     1    30    1
     4     1    31    1
     5     2     3    1
     6     3     4    1
     7     3    28    1
     8     3     5    1
     9     5     6    1
    10     5    32    1
    11     5    33    1
    12     6     7    1
    13     6    34    1
    14     6    35    1
    15     7     8    1
    16     7     9    1
    17     7    28    1
    18     9    10    1
    19    10    11    2
    20    10    12    1
    21    12    13    1
    22    12    17    1
    23    12    14    1
    24    14    15    1
    25    14    36    1
    26    14    37    1
    27    15    16    1
    28    15    38    1
    29    15    39    1
    30    16    17    1
    31    16    40    1
    32    16    41    1
    33    17    18   am
    34    18    19    2
    35    18    20    1
    36    20    26   ar
    37    20    21   ar
    38    21    22   ar
    39    21    42    1
    40    22    23    1
    41    22    24   ar
    42    24    25   ar
    43    24    43    1
    44    25    26   ar
    45    25    44    1
    46    26    27    1
    47    28    45    1
    48    28    46    1
@<TRIPOS>SUBSTRUCTURE
     1 ZINC000800038938        1 TEMP              0 ****  ****    0 ROOT


##########                                Name:    ZINC000062882109
##########                DOCK_Rotatable_Bonds:                   8
##########                         Heavy_Atoms:                  31
##########                    Molecular_Weight:             424.497
##########                DOCK_Rotatable_Bonds:                   8
##########                       Formal_Charge:           0.0299993
##########                     HBond_Acceptors:                   7
##########                        HBond_Donors:                   1
##########                         Heavy_Atoms:                  31
##########                          Grid_Score:          -32.679970
##########                     Grid_vdw_energy:          -31.642115
##########                      Grid_es_energy:           -1.037855
##########           Internal_energy_repulsive:          187.982880

@<TRIPOS>MOLECULE
ZINC000062882109
 59 61 1 0 0
SMALL
USER_CHARGES


@<TRIPOS>ATOM
      1 C1          2.5421   -0.2126   59.8111 C.3     1  ZINC000062882109   -0.2000
      2 C2          3.0473    0.4873   58.5759 C.2     1  ZINC000062882109    0.3900
      3 O3          4.1585    0.2468   58.1544 O.2     1  ZINC000062882109   -0.4500
      4 C4          2.1918    1.4628   57.8809 C.ar    1  ZINC000062882109   -0.1300
      5 C5          2.6976    2.1996   56.8054 C.ar    1  ZINC000062882109   -0.1100
      6 C6          1.8921    3.1127   56.1572 C.ar    1  ZINC000062882109   -0.0900
      7 C7          0.5851    3.3027   56.5670 C.ar    1  ZINC000062882109   -0.1800
      8 C8          0.0729    2.5763   57.6344 C.ar    1  ZINC000062882109    0.1200
      9 O9         -1.2126    2.7682   58.0317 O.3     1  ZINC000062882109   -0.2800
     10 C10        -1.9592    3.7768   57.3480 C.3     1  ZINC000062882109    0.0700
     11 H11        -1.3451    4.6703   57.2360 H       1  ZINC000062882109    0.1000
     12 C12        -3.2135    4.1179   58.1551 C.3     1  ZINC000062882109   -0.1800
     13 C13        -2.3603    3.2690   55.9870 C.2     1  ZINC000062882109    0.5200
     14 O14        -2.4098    2.0758   55.7752 O.2     1  ZINC000062882109   -0.4900
     15 N15        -2.6641    4.1408   55.0051 N.am    1  ZINC000062882109   -0.6600
     16 C16        -3.0371    3.6688   53.7398 C.ar    1  ZINC000062882109    0.1400
     17 C17        -4.3804    3.5584   53.4074 C.ar    1  ZINC000062882109   -0.1000
     18 C18        -4.7523    3.0916   52.1611 C.ar    1  ZINC000062882109   -0.1100
     19 C19        -3.7849    2.7305   51.2355 C.ar    1  ZINC000062882109    0.0800
     20 O20        -4.1637    2.2644   50.0154 O.3     1  ZINC000062882109   -0.3100
     21 C21        -3.2062    2.3181   48.9554 C.3     1  ZINC000062882109    0.0500
     22 C22        -1.8854    1.7119   49.4503 C.3     1  ZINC000062882109    0.0400
     23 N23        -1.4552    2.4839   50.6285 N.am    1  ZINC000062882109   -0.5500
     24 C24        -0.1648    2.8330   50.8004 C.2     1  ZINC000062882109    0.5300
     25 O25         0.1663    3.4690   51.7787 O.2     1  ZINC000062882109   -0.5100
     26 C26         0.8666    2.4331   49.7770 C.3     1  ZINC000062882109   -0.0800
     27 C27         2.2606    2.8078   50.2844 C.3     1  ZINC000062882109   -0.1300
     28 C28         0.7970    0.9222   49.5463 C.3     1  ZINC000062882109   -0.1600
     29 C29         0.5894    3.1632   48.4613 C.3     1  ZINC000062882109   -0.1500
     30 C30        -2.4371    2.8446   51.5673 C.ar    1  ZINC000062882109    0.1000
     31 C31        -2.0635    3.3159   52.8147 C.ar    1  ZINC000062882109   -0.1400
     32 C32         0.8684    1.6526   58.2894 C.ar    1  ZINC000062882109   -0.0900
     33 H33         3.3089   -0.8922   60.1829 H       1  ZINC000062882109    0.0900
     34 H34         2.3089    0.5263   60.5778 H       1  ZINC000062882109    0.1000
     35 H35         1.6431   -0.7782   59.5662 H       1  ZINC000062882109    0.1000
     36 H36         3.7179    2.0543   56.4829 H       1  ZINC000062882109    0.1400
     37 H37         2.2837    3.6816   55.3269 H       1  ZINC000062882109    0.1300
     38 H38        -0.0401    4.0191   56.0550 H       1  ZINC000062882109    0.1300
     39 H39        -2.9233    4.4852   59.1395 H       1  ZINC000062882109    0.0800
     40 H40        -3.7830    4.8874   57.6336 H       1  ZINC000062882109    0.0800
     41 H41        -3.8276    3.2245   58.2672 H       1  ZINC000062882109    0.0800
     42 H42        -2.6247    5.0951   55.1745 H       1  ZINC000062882109    0.4100
     43 H43        -5.1373    3.8381   54.1252 H       1  ZINC000062882109    0.1400
     44 H44        -5.7987    3.0073   51.9075 H       1  ZINC000062882109    0.1400
     45 H45        -3.5732    1.7473   48.1024 H       1  ZINC000062882109    0.1300
     46 H46        -3.0447    3.3551   48.6611 H       1  ZINC000062882109    0.0700
     47 H47        -2.0379    0.6687   49.7271 H       1  ZINC000062882109    0.0900
     48 H48        -1.1303    1.7808   48.6671 H       1  ZINC000062882109    0.1300
     49 H49         2.4581    2.2877   51.2217 H       1  ZINC000062882109    0.0600
     50 H50         3.0066    2.5185   49.5441 H       1  ZINC000062882109    0.0700
     51 H51         2.3102    3.8842   50.4486 H       1  ZINC000062882109    0.0700
     52 H52        -0.1959    0.6552   49.1848 H       1  ZINC000062882109    0.0700
     53 H53         1.5430    0.6329   48.8061 H       1  ZINC000062882109    0.0800
     54 H54         0.9945    0.4021   50.4836 H       1  ZINC000062882109    0.0600
     55 H55         0.8314    4.2200   48.5742 H       1  ZINC000062882109    0.0700
     56 H56         1.2034    2.7324   47.6704 H       1  ZINC000062882109    0.0800
     57 H57        -0.4639    3.0572   48.2020 H       1  ZINC000062882109    0.0700
     58 H58        -1.0176    3.4046   53.0689 H       1  ZINC000062882109    0.1800
     59 H59         0.4709    1.0870   59.1192 H       1  ZINC000062882109    0.1400
@<TRIPOS>BOND
     1     1     2    1
     2     1    33    1
     3     1    34    1
     4     1    35    1
     5     2     3    2
     6     2     4    1
     7     4    32   ar
     8     4     5   ar
     9     5     6   ar
    10     5    36    1
    11     6     7   ar
    12     6    37    1
    13     7     8   ar
    14     7    38    1
    15     8     9    1
    16     8    32   ar
    17     9    10    1
    18    10    11    1
    19    10    12    1
    20    10    13    1
    21    12    39    1
    22    12    40    1
    23    12    41    1
    24    13    14    2
    25    13    15   am
    26    15    16    1
    27    15    42    1
    28    16    31   ar
    29    16    17   ar
    30    17    18   ar
    31    17    43    1
    32    18    19   ar
    33    18    44    1
    34    19    30   ar
    35    19    20    1
    36    20    21    1
    37    21    22    1
    38    21    45    1
    39    21    46    1
    40    22    23    1
    41    22    47    1
    42    22    48    1
    43    23    24   am
    44    23    30    1
    45    24    25    2
    46    24    26    1
    47    26    27    1
    48    26    28    1
    49    26    29    1
    50    27    49    1
    51    27    50    1
    52    27    51    1
    53    28    52    1
    54    28    53    1
    55    28    54    1
    56    29    55    1
    57    29    56    1
    58    29    57    1
    59    30    31   ar
    60    31    58    1
    61    32    59    1
@<TRIPOS>SUBSTRUCTURE
     1 ZINC000062882109        1 TEMP              0 ****  ****    0 ROOT


##########                                Name:    ZINC000011157684
##########                DOCK_Rotatable_Bonds:                   7
##########                         Heavy_Atoms:                  25
##########                    Molecular_Weight:             374.866
##########                DOCK_Rotatable_Bonds:                   7
##########                       Formal_Charge:           0.0400001
##########                     HBond_Acceptors:                   6
##########                        HBond_Donors:                   2
##########                         Heavy_Atoms:                  25
##########                          Grid_Score:          -32.674938
##########                     Grid_vdw_energy:          -31.256512
##########                      Grid_es_energy:           -1.418426
##########           Internal_energy_repulsive:            7.076726

@<TRIPOS>MOLECULE
ZINC000011157684
 41 43 1 0 0
SMALL
USER_CHARGES


@<TRIPOS>ATOM
      1 O1         -4.0984    2.8714   49.6336 O.2     1  ZINC000011157684   -0.5200
      2 C2         -4.2129    3.3094   50.7588 C.2     1  ZINC000011157684    0.5100
      3 C3         -3.0002    3.8125   51.4985 C.3     1  ZINC000011157684    0.1000
      4 N4         -1.8827    3.9581   50.5624 N.pl3   1  ZINC000011157684   -0.7300
      5 C5         -0.6628    3.3258   50.8256 C.ar    1  ZINC000011157684    0.2200
      6 C6         -0.5092    1.9726   50.5574 C.ar    1  ZINC000011157684   -0.1600
      7 C7          0.6966    1.3500   50.8175 C.ar    1  ZINC000011157684   -0.0900
      8 C8          1.7514    2.0743   51.3460 C.ar    1  ZINC000011157684    0.0500
      9 F9          2.9291    1.4631   51.5999 F       1  ZINC000011157684   -0.1400
     10 C10         1.6013    3.4247   51.6143 C.ar    1  ZINC000011157684   -0.0900
     11 C11         0.3990    4.0529   51.3508 C.ar    1  ZINC000011157684   -0.0900
     12 Cl12        0.2110    5.7455   51.6873 Cl      1  ZINC000011157684   -0.0500
     13 N13        -5.4256    3.3513   51.3455 N.am    1  ZINC000011157684   -0.7200
     14 C14        -6.6044    2.8621   50.6263 C.3     1  ZINC000011157684    0.2600
     15 H15        -6.3817    2.8031   49.5609 H       1  ZINC000011157684    0.1200
     16 C16        -7.7562    3.8087   50.8471 C.2     1  ZINC000011157684   -0.1900
     17 C17        -7.7080    4.9198   51.5834 C.2     1  ZINC000011157684   -0.1200
     18 C18        -8.8930    5.6331   51.6410 C.2     1  ZINC000011157684   -0.1300
     19 C19        -9.9034    5.1010   50.9516 C.2     1  ZINC000011157684   -0.2100
     20 S20        -9.3673    3.6210   50.1668 S.3     1  ZINC000011157684    0.1100
     21 C21        -6.9735    1.4938   51.1388 C.ar    1  ZINC000011157684   -0.0900
     22 C22        -6.5772    0.3659   50.4448 C.ar    1  ZINC000011157684   -0.1100
     23 C23        -6.9157   -0.8893   50.9148 C.ar    1  ZINC000011157684   -0.1100
     24 C24        -7.6500   -1.0165   52.0790 C.ar    1  ZINC000011157684   -0.1100
     25 C25        -8.0455    0.1114   52.7734 C.ar    1  ZINC000011157684   -0.1100
     26 C26        -7.7034    1.3664   52.3058 C.ar    1  ZINC000011157684   -0.1000
     27 H27        -3.2247    4.7793   51.9493 H       1  ZINC000011157684    0.1000
     28 H28        -2.7299    3.1016   52.2792 H       1  ZINC000011157684    0.1000
     29 H29        -1.9886    4.4928   49.7601 H       1  ZINC000011157684    0.4200
     30 H30        -1.3317    1.4066   50.1457 H       1  ZINC000011157684    0.1400
     31 H31         0.8162    0.2972   50.6088 H       1  ZINC000011157684    0.1400
     32 H32         2.4256    3.9880   52.0262 H       1  ZINC000011157684    0.1500
     33 H33        -5.5177    3.7052   52.2439 H       1  ZINC000011157684    0.4000
     34 H34        -6.8125    5.2386   52.0960 H       1  ZINC000011157684    0.1400
     35 H35        -8.9920    6.5506   52.2021 H       1  ZINC000011157684    0.1400
     36 H36       -10.8975    5.5174   50.8826 H       1  ZINC000011157684    0.1700
     37 H37        -6.0034    0.4653   49.5352 H       1  ZINC000011157684    0.1200
     38 H38        -6.6066   -1.7705   50.3721 H       1  ZINC000011157684    0.1300
     39 H39        -7.9151   -1.9972   52.4458 H       1  ZINC000011157684    0.1300
     40 H40        -8.6196    0.0119   53.6828 H       1  ZINC000011157684    0.1300
     41 H41        -8.0123    2.2476   52.8483 H       1  ZINC000011157684    0.1300
@<TRIPOS>BOND
     1     1     2    2
     2     2     3    1
     3     2    13   am
     4     3     4    1
     5     3    27    1
     6     3    28    1
     7     4     5    1
     8     4    29    1
     9     5    11   ar
    10     5     6   ar
    11     6     7   ar
    12     6    30    1
    13     7     8   ar
    14     7    31    1
    15     8     9    1
    16     8    10   ar
    17    10    11   ar
    18    10    32    1
    19    11    12    1
    20    13    14    1
    21    13    33    1
    22    14    15    1
    23    14    16    1
    24    14    21    1
    25    16    20    1
    26    16    17    2
    27    17    18    1
    28    17    34    1
    29    18    19    2
    30    18    35    1
    31    19    20    1
    32    19    36    1
    33    21    26   ar
    34    21    22   ar
    35    22    23   ar
    36    22    37    1
    37    23    24   ar
    38    23    38    1
    39    24    25   ar
    40    24    39    1
    41    25    26   ar
    42    25    40    1
    43    26    41    1
@<TRIPOS>SUBSTRUCTURE
     1 ZINC000011157684        1 TEMP              0 ****  ****    0 ROOT


##########                                Name:    ZINC000277085192
##########                DOCK_Rotatable_Bonds:                   4
##########                         Heavy_Atoms:                  23
##########                    Molecular_Weight:             335.747
##########                DOCK_Rotatable_Bonds:                   4
##########                       Formal_Charge:         5.96046e-08
##########                     HBond_Acceptors:                   8
##########                        HBond_Donors:                   2
##########                         Heavy_Atoms:                  23
##########                          Grid_Score:          -32.658352
##########                     Grid_vdw_energy:          -28.697256
##########                      Grid_es_energy:           -3.961096
##########           Internal_energy_repulsive:            6.207136

@<TRIPOS>MOLECULE
ZINC000277085192
 37 39 1 0 0
SMALL
USER_CHARGES


@<TRIPOS>ATOM
      1 O1        -10.3363   -2.4782   60.9982 O.2     1  ZINC000277085192   -0.5000
      2 C2         -9.6442   -1.9799   60.1356 C.2     1  ZINC000277085192    0.5000
      3 C3         -9.3296   -2.7540   58.8815 C.3     1  ZINC000277085192    0.1100
      4 N4        -10.5773   -3.1077   58.2000 N.am    1  ZINC000277085192   -0.6000
      5 C5        -11.5076   -2.0496   57.8023 C.3     1  ZINC000277085192    0.1100
      6 C6        -12.1654   -2.4206   56.4712 C.3     1  ZINC000277085192   -0.1600
      7 C7        -12.6325   -3.8533   56.5317 C.2     1  ZINC000277085192    0.5200
      8 O8        -13.6442   -4.1863   55.9527 O.2     1  ZINC000277085192   -0.5000
      9 N9        -11.9254   -4.7619   57.2282 N.am    1  ZINC000277085192   -0.6700
     10 C10       -10.8490   -4.3978   57.9441 C.2     1  ZINC000277085192    0.7200
     11 O11       -10.1072   -5.2570   58.3785 O.2     1  ZINC000277085192   -0.5500
     12 N12        -9.1614   -0.7320   60.2963 N.am    1  ZINC000277085192   -0.6700
     13 C13        -9.4537   -0.0127   61.4614 C.ar    1  ZINC000277085192    0.1400
     14 C14        -9.0486   -0.4959   62.6919 C.ar    1  ZINC000277085192   -0.0400
     15 C15        -9.3418    0.2243   63.8603 C.ar    1  ZINC000277085192   -0.1700
     16 C16       -10.0426    1.4272   63.7663 C.ar    1  ZINC000277085192   -0.0500
     17 C17       -10.4419    1.9003   62.5305 C.ar    1  ZINC000277085192   -0.0900
     18 C18       -10.1471    1.1912   61.3805 C.ar    1  ZINC000277085192   -0.0300
     19 Cl19      -10.6545    1.7968   59.8348 Cl      1  ZINC000277085192   -0.0500
     20 C20       -10.2346    2.0101   65.1462 C.3     1  ZINC000277085192   -0.0800
     21 C21        -9.5707    1.0308   66.1239 C.3     1  ZINC000277085192   -0.1700
     22 C22        -9.0210   -0.0811   65.2639 C.2     1  ZINC000277085192    0.4100
     23 O23        -8.4193   -1.0565   65.6604 O.2     1  ZINC000277085192   -0.4300
     24 H24        -8.7158   -2.1416   58.2209 H       1  ZINC000277085192    0.1300
     25 H25        -8.7875   -3.6631   59.1420 H       1  ZINC000277085192    0.1200
     26 H26       -12.2755   -1.9346   58.5672 H       1  ZINC000277085192    0.0800
     27 H27       -10.9640   -1.1115   57.6897 H       1  ZINC000277085192    0.1000
     28 H28       -13.0188   -1.7667   56.2919 H       1  ZINC000277085192    0.1300
     29 H29       -11.4424   -2.3071   55.6635 H       1  ZINC000277085192    0.1200
     30 H30       -12.1951   -5.6934   57.2099 H       1  ZINC000277085192    0.4300
     31 H31        -8.6112   -0.3321   59.6047 H       1  ZINC000277085192    0.4200
     32 H32        -8.5067   -1.4280   62.7540 H       1  ZINC000277085192    0.1500
     33 H33       -10.9844    2.8317   62.4623 H       1  ZINC000277085192    0.1500
     34 H34        -9.7541    2.9864   65.2103 H       1  ZINC000277085192    0.1000
     35 H35       -11.2975    2.0999   65.3701 H       1  ZINC000277085192    0.1000
     36 H36        -8.7630    1.5254   66.6636 H       1  ZINC000277085192    0.1100
     37 H37       -10.3083    0.6377   66.8236 H       1  ZINC000277085192    0.1100
@<TRIPOS>BOND
     1     1     2    2
     2     2     3    1
     3     2    12   am
     4     3     4    1
     5     3    24    1
     6     3    25    1
     7     4    10   am
     8     4     5    1
     9     5     6    1
    10     5    26    1
    11     5    27    1
    12     6     7    1
    13     6    28    1
    14     6    29    1
    15     7     8    2
    16     7     9   am
    17     9    10   am
    18     9    30    1
    19    10    11    2
    20    12    13    1
    21    12    31    1
    22    13    18   ar
    23    13    14   ar
    24    14    15   ar
    25    14    32    1
    26    15    22    1
    27    15    16   ar
    28    16    17   ar
    29    16    20    1
    30    17    18   ar
    31    17    33    1
    32    18    19    1
    33    20    21    1
    34    20    34    1
    35    20    35    1
    36    21    22    1
    37    21    36    1
    38    21    37    1
    39    22    23    2
@<TRIPOS>SUBSTRUCTURE
     1 ZINC000277085192        1 TEMP              0 ****  ****    0 ROOT


##########                                Name:    ZINC000587344575
##########                DOCK_Rotatable_Bonds:                   7
##########                         Heavy_Atoms:                  30
##########                    Molecular_Weight:             408.475
##########                DOCK_Rotatable_Bonds:                   7
##########                       Formal_Charge:          -0.0100002
##########                     HBond_Acceptors:                   7
##########                        HBond_Donors:                   2
##########                         Heavy_Atoms:                  30
##########                          Grid_Score:          -32.654366
##########                     Grid_vdw_energy:          -33.379185
##########                      Grid_es_energy:            0.724818
##########           Internal_energy_repulsive:           19.798326

@<TRIPOS>MOLECULE
ZINC000587344575
 55 57 1 0 0
SMALL
USER_CHARGES


@<TRIPOS>ATOM
      1 C1         -8.3992    3.2580   51.8502 C.3     1  ZINC000587344575   -0.1200
      2 C2         -8.3418    1.7559   51.9575 C.ar    1  ZINC000587344575    0.0000
      3 C3         -9.2871    1.0812   52.6962 C.ar    1  ZINC000587344575   -0.1600
      4 C4         -9.2351   -0.3058   52.7954 C.ar    1  ZINC000587344575    0.1800
      5 N5        -10.1947   -0.9861   53.5443 N.am    1  ZINC000587344575   -0.6700
      6 C6        -10.3299   -0.7281   54.8601 C.2     1  ZINC000587344575    0.5200
      7 O7         -9.6170    0.0957   55.3929 O.2     1  ZINC000587344575   -0.5000
      8 C8        -11.3670   -1.4634   55.6695 C.3     1  ZINC000587344575   -0.1200
      9 H9        -11.1664   -2.5347   55.6565 H       1  ZINC000587344575    0.1100
     10 C10       -12.7818   -1.1756   55.1170 C.3     1  ZINC000587344575   -0.1200
     11 C11       -13.6374   -1.0519   56.4028 C.3     1  ZINC000587344575    0.0400
     12 N12       -12.7272   -0.3607   57.3514 N.3     1  ZINC000587344575   -0.4800
     13 C13       -13.1338   -0.5605   58.6691 C.ar    1  ZINC000587344575    0.0700
     14 C14       -13.3355   -1.8516   59.1446 C.ar    1  ZINC000587344575   -0.1200
     15 C15       -13.7379   -2.0533   60.4463 C.ar    1  ZINC000587344575   -0.0700
     16 C16       -13.9433   -0.9589   61.2909 C.ar    1  ZINC000587344575    0.0000
     17 C17       -14.3612   -1.1660   62.6448 C.1     1  ZINC000587344575    0.2500
     18 N18       -14.6928   -1.3302   63.7188 N.1     1  ZINC000587344575   -0.4000
     19 C19       -13.7396    0.3389   60.8111 C.ar    1  ZINC000587344575   -0.1000
     20 C20       -13.3320    0.5337   59.5092 C.ar    1  ZINC000587344575    0.1300
     21 F21       -13.1342    1.7866   59.0441 F       1  ZINC000587344575   -0.1200
     22 C22       -11.3843   -0.9403   57.1177 C.3     1  ZINC000587344575    0.0500
     23 C23        -8.2282   -1.0152   52.1487 C.ar    1  ZINC000587344575   -0.1400
     24 C24        -7.2795   -0.3466   51.4081 C.ar    1  ZINC000587344575   -0.0600
     25 C25        -7.3320    1.0458   51.3021 C.ar    1  ZINC000587344575   -0.1600
     26 C26        -6.3168    1.7659   50.5086 C.2     1  ZINC000587344575    0.5600
     27 O27        -6.6605    2.6122   49.7062 O.2     1  ZINC000587344575   -0.5300
     28 N28        -5.0090    1.4852   50.6736 N.am    1  ZINC000587344575   -0.7200
     29 C29        -4.0016    2.1987   49.8847 C.3     1  ZINC000587344575    0.1400
     30 C30        -3.8427    3.6207   50.4264 C.3     1  ZINC000587344575   -0.1600
     31 C31        -2.6632    1.4635   49.9817 C.3     1  ZINC000587344575   -0.1600
     32 H32        -8.9070    3.5372   50.9270 H       1  ZINC000587344575    0.0800
     33 H33        -8.9458    3.6624   52.7021 H       1  ZINC000587344575    0.0600
     34 H34        -7.3864    3.6608   51.8439 H       1  ZINC000587344575    0.1000
     35 H35       -10.0700    1.6290   53.1998 H       1  ZINC000587344575    0.1300
     36 H36       -10.7648   -1.6451   53.1181 H       1  ZINC000587344575    0.4100
     37 H37       -12.7938   -0.2420   54.5544 H       1  ZINC000587344575    0.0900
     38 H38       -13.1307   -2.0035   54.4998 H       1  ZINC000587344575    0.0900
     39 H39       -14.5274   -0.4509   56.2164 H       1  ZINC000587344575    0.0900
     40 H40       -13.9097   -2.0377   56.7800 H       1  ZINC000587344575    0.0600
     41 H41       -13.1767   -2.6975   58.4921 H       1  ZINC000587344575    0.1400
     42 H42       -13.8948   -3.0565   60.8141 H       1  ZINC000587344575    0.1400
     43 H43       -13.8974    1.1868   61.4611 H       1  ZINC000587344575    0.1500
     44 H44       -11.2078   -1.7609   57.8133 H       1  ZINC000587344575    0.0600
     45 H45       -10.6212   -0.1723   57.2442 H       1  ZINC000587344575    0.1100
     46 H46        -8.1905   -2.0916   52.2280 H       1  ZINC000587344575    0.1400
     47 H47        -6.4981   -0.8979   50.9063 H       1  ZINC000587344575    0.1300
     48 H48        -4.7347    0.8109   51.3145 H       1  ZINC000587344575    0.4000
     49 H49        -4.3186    2.2402   48.8426 H       1  ZINC000587344575    0.0900
     50 H50        -3.5257    3.5792   51.4685 H       1  ZINC000587344575    0.0600
     51 H51        -3.0932    4.1515   49.8395 H       1  ZINC000587344575    0.0700
     52 H52        -4.7962    4.1445   50.3573 H       1  ZINC000587344575    0.0600
     53 H53        -2.3462    1.4220   51.0238 H       1  ZINC000587344575    0.0600
     54 H54        -2.7764    0.4505   49.5958 H       1  ZINC000587344575    0.0600
     55 H55        -1.9137    1.9943   49.3948 H       1  ZINC000587344575    0.0700
@<TRIPOS>BOND
     1     1     2    1
     2     1    32    1
     3     1    33    1
     4     1    34    1
     5     2    25   ar
     6     2     3   ar
     7     3     4   ar
     8     3    35    1
     9     4     5    1
    10     4    23   ar
    11     5     6   am
    12     5    36    1
    13     6     7    2
    14     6     8    1
    15     8     9    1
    16     8    22    1
    17     8    10    1
    18    10    11    1
    19    10    37    1
    20    10    38    1
    21    11    12    1
    22    11    39    1
    23    11    40    1
    24    12    13    1
    25    12    22    1
    26    13    20   ar
    27    13    14   ar
    28    14    15   ar
    29    14    41    1
    30    15    16   ar
    31    15    42    1
    32    16    17    1
    33    16    19   ar
    34    17    18    3
    35    19    20   ar
    36    19    43    1
    37    20    21    1
    38    22    44    1
    39    22    45    1
    40    23    24   ar
    41    23    46    1
    42    24    25   ar
    43    24    47    1
    44    25    26    1
    45    26    27    2
    46    26    28   am
    47    28    29    1
    48    28    48    1
    49    29    30    1
    50    29    31    1
    51    29    49    1
    52    30    50    1
    53    30    51    1
    54    30    52    1
    55    31    53    1
    56    31    54    1
    57    31    55    1
@<TRIPOS>SUBSTRUCTURE
     1 ZINC000587344575        1 TEMP              0 ****  ****    0 ROOT


##########                                Name:    ZINC000425987417
##########                DOCK_Rotatable_Bonds:                   9
##########                         Heavy_Atoms:                  25
##########                    Molecular_Weight:             357.419
##########                DOCK_Rotatable_Bonds:                   9
##########                       Formal_Charge:         -0.00999992
##########                     HBond_Acceptors:                   7
##########                        HBond_Donors:                   1
##########                         Heavy_Atoms:                  25
##########                          Grid_Score:          -32.648621
##########                     Grid_vdw_energy:          -31.842474
##########                      Grid_es_energy:           -0.806148
##########           Internal_energy_repulsive:           15.279682

@<TRIPOS>MOLECULE
ZINC000425987417
 51 52 1 0 0
SMALL
USER_CHARGES


@<TRIPOS>ATOM
      1 C1         -9.7694    2.5397   54.1787 C.3     1  ZINC000425987417   -0.1500
      2 C2         -9.1516    1.2435   54.7073 C.3     1  ZINC000425987417    0.0400
      3 N3         -8.9453    0.3093   53.5926 N.3     1  ZINC000425987417   -0.5300
      4 C4        -10.2281   -0.1060   53.0094 C.3     1  ZINC000425987417    0.0400
      5 C5        -10.3189   -1.6332   53.0118 C.3     1  ZINC000425987417    0.1400
      6 N6        -10.8668   -2.0879   54.2922 N.am    1  ZINC000425987417   -0.7500
      7 C7        -11.7241   -3.1272   54.3273 C.2     1  ZINC000425987417    0.7200
      8 O8        -12.0426   -3.6876   53.2964 O.2     1  ZINC000425987417   -0.5800
      9 N9        -12.2282   -3.5455   55.5052 N.am    1  ZINC000425987417   -0.6200
     10 C10       -13.1666   -4.6775   55.5776 C.3     1  ZINC000425987417    0.1300
     11 C11       -14.5042   -4.1467   56.0912 C.3     1  ZINC000425987417   -0.1000
     12 C12       -14.3050   -3.2724   57.3011 C.ar    1  ZINC000425987417   -0.0600
     13 C13       -15.3988   -3.0627   58.1316 C.ar    1  ZINC000425987417   -0.1200
     14 C14       -15.2872   -2.2647   59.2513 C.ar    1  ZINC000425987417   -0.1100
     15 C15       -14.0779   -1.6660   59.5511 C.ar    1  ZINC000425987417   -0.1200
     16 C16       -12.9888   -1.8753   58.7298 C.ar    1  ZINC000425987417   -0.1100
     17 C17       -13.0984   -2.6826   57.6061 C.ar    1  ZINC000425987417   -0.0900
     18 C18       -11.8589   -2.8948   56.7669 C.3     1  ZINC000425987417    0.1800
     19 H19       -11.3945   -1.9315   56.5560 H       1  ZINC000425987417    0.0900
     20 C20       -10.8719   -3.7794   57.5313 C.3     1  ZINC000425987417   -0.1600
     21 C21        -8.0673    0.8947   52.5707 C.3     1  ZINC000425987417    0.0500
     22 C22        -7.1828   -0.2000   51.9704 C.3     1  ZINC000425987417   -0.1600
     23 C23        -6.2139    0.4224   50.9631 C.3     1  ZINC000425987417    0.4500
     24 F24        -6.9288    1.2077   50.0523 F       1  ZINC000425987417   -0.1800
     25 F25        -5.2865    1.2214   51.6403 F       1  ZINC000425987417   -0.1800
     26 F26        -5.5404   -0.5928   50.2754 F       1  ZINC000425987417   -0.1900
     27 H27       -10.7476    2.3265   53.7477 H       1  ZINC000425987417    0.0500
     28 H28        -9.8803    3.2498   54.9982 H       1  ZINC000425987417    0.0600
     29 H29        -9.1204    2.9660   53.4139 H       1  ZINC000425987417    0.0700
     30 H30        -8.1940    1.4634   55.1791 H       1  ZINC000425987417    0.0800
     31 H31        -9.8224    0.7934   55.4392 H       1  ZINC000425987417    0.0400
     32 H32       -11.0461    0.3076   53.5994 H       1  ZINC000425987417    0.0500
     33 H33       -10.2972    0.2607   51.9853 H       1  ZINC000425987417    0.0800
     34 H34       -10.9704   -1.9596   52.2013 H       1  ZINC000425987417    0.0800
     35 H35        -9.3242   -2.0565   52.8714 H       1  ZINC000425987417    0.0700
     36 H36       -10.6126   -1.6408   55.1146 H       1  ZINC000425987417    0.3900
     37 H37       -13.2982   -5.1115   54.5864 H       1  ZINC000425987417    0.1000
     38 H38       -12.7817   -5.4324   56.2632 H       1  ZINC000425987417    0.0700
     39 H39       -14.9853   -3.5658   55.3044 H       1  ZINC000425987417    0.0800
     40 H40       -15.1449   -4.9873   56.3578 H       1  ZINC000425987417    0.0900
     41 H41       -16.3450   -3.5282   57.8983 H       1  ZINC000425987417    0.1200
     42 H42       -16.1425   -2.1077   59.8917 H       1  ZINC000425987417    0.1200
     43 H43       -13.9858   -1.0369   60.4240 H       1  ZINC000425987417    0.1200
     44 H44       -12.0439   -1.4072   58.9631 H       1  ZINC000425987417    0.1200
     45 H45       -11.3363   -4.7423   57.7440 H       1  ZINC000425987417    0.0700
     46 H46        -9.9780   -3.9327   56.9268 H       1  ZINC000425987417    0.0600
     47 H47       -10.5983   -3.2934   58.4678 H       1  ZINC000425987417    0.0700
     48 H48        -8.6740    1.3435   51.7842 H       1  ZINC000425987417    0.0500
     49 H49        -7.4393    1.6601   53.0265 H       1  ZINC000425987417    0.0900
     50 H50        -6.6175   -0.6868   52.7652 H       1  ZINC000425987417    0.1200
     51 H51        -7.8082   -0.9363   51.4658 H       1  ZINC000425987417    0.1100
@<TRIPOS>BOND
     1     1     2    1
     2     1    27    1
     3     1    28    1
     4     1    29    1
     5     2     3    1
     6     2    30    1
     7     2    31    1
     8     3     4    1
     9     3    21    1
    10     4     5    1
    11     4    32    1
    12     4    33    1
    13     5     6    1
    14     5    34    1
    15     5    35    1
    16     6     7   am
    17     6    36    1
    18     7     8    2
    19     7     9   am
    20     9    18    1
    21     9    10    1
    22    10    11    1
    23    10    37    1
    24    10    38    1
    25    11    12    1
    26    11    39    1
    27    11    40    1
    28    12    17   ar
    29    12    13   ar
    30    13    14   ar
    31    13    41    1
    32    14    15   ar
    33    14    42    1
    34    15    16   ar
    35    15    43    1
    36    16    17   ar
    37    16    44    1
    38    17    18    1
    39    18    19    1
    40    18    20    1
    41    20    45    1
    42    20    46    1
    43    20    47    1
    44    21    22    1
    45    21    48    1
    46    21    49    1
    47    22    23    1
    48    22    50    1
    49    22    51    1
    50    23    24    1
    51    23    25    1
    52    23    26    1
@<TRIPOS>SUBSTRUCTURE
     1 ZINC000425987417        1 TEMP              0 ****  ****    0 ROOT


##########                                Name:    ZINC000013551438
##########                DOCK_Rotatable_Bonds:                   5
##########                         Heavy_Atoms:                  27
##########                    Molecular_Weight:             377.467
##########                DOCK_Rotatable_Bonds:                   5
##########                       Formal_Charge:          -0.0300005
##########                     HBond_Acceptors:                   6
##########                        HBond_Donors:                   1
##########                         Heavy_Atoms:                  27
##########                          Grid_Score:          -32.646706
##########                     Grid_vdw_energy:          -31.171171
##########                      Grid_es_energy:           -1.475534
##########           Internal_energy_repulsive:           10.453906

@<TRIPOS>MOLECULE
ZINC000013551438
 46 49 1 0 0
SMALL
USER_CHARGES


@<TRIPOS>ATOM
      1 C1        -10.6446   -1.6735   60.5327 C.3     1  <0>         0.0300
      2 O2        -10.4555   -0.8382   59.3889 O.3     1  <0>        -0.3200
      3 C3        -10.8966   -1.3172   58.1949 C.ar    1  <0>         0.1000
      4 C4        -11.6739   -2.4713   58.1551 C.ar    1  <0>        -0.1800
      5 C5        -12.1283   -2.9693   56.9542 C.ar    1  <0>        -0.0900
      6 C6        -11.8115   -2.3180   55.7665 C.ar    1  <0>         0.0700
      7 C7        -11.0274   -1.1525   55.8048 C.ar    1  <0>        -0.0400
      8 C8        -10.5765   -0.6536   57.0265 C.ar    1  <0>        -0.1100
      9 C9        -10.8754   -0.7175   54.4073 C.2     1  <0>        -0.1200
     10 C10       -10.1275    0.4700   53.9264 C.2     1  <0>         0.1700
     11 C11       -10.6821    1.6927   53.8257 C.2     1  <0>        -0.3000
     12 S12        -9.4537    2.8000   53.2193 S.3     1  <0>         0.2500
     13 C13        -8.3153    1.5268   53.1573 C.2     1  <0>         0.2400
     14 N14        -6.9988    1.6611   52.7370 N.am    1  <0>        -0.6200
     15 C15        -6.7303    2.1132   51.4961 C.2     1  <0>         0.5600
     16 O16        -7.6408    2.4048   50.7452 O.2     1  <0>        -0.5000
     17 C17        -5.3290    2.2544   51.0481 C.ar    1  <0>        -0.1400
     18 C18        -4.2868    2.1887   51.9745 C.ar    1  <0>        -0.0800
     19 C19        -2.9810    2.3208   51.5497 C.ar    1  <0>        -0.1300
     20 C20        -2.7032    2.5181   50.2087 C.ar    1  <0>        -0.0800
     21 C21        -3.7315    2.5848   49.2852 C.ar    1  <0>        -0.1300
     22 C22        -5.0414    2.4484   49.6959 C.ar    1  <0>        -0.0500
     23 N23        -8.8520    0.4207   53.5636 N.2     1  <0>        -0.5000
     24 C24       -11.5496   -1.6108   53.6448 C.2     1  <0>         0.1300
     25 C25       -11.6630   -1.5580   52.1430 C.3     1  <0>        -0.0900
     26 N26       -12.1114   -2.5689   54.4434 N.pl3   1  <0>        -0.4800
     27 C27       -12.9134   -3.6971   53.9637 C.3     1  <0>         0.0800
     28 H28       -10.1201   -2.6174   60.3841 H       1  <0>         0.0500
     29 H29       -10.2493   -1.1735   61.4171 H       1  <0>         0.1000
     30 H30       -11.7086   -1.8666   60.6697 H       1  <0>         0.0500
     31 H31       -11.9224   -2.9811   59.0742 H       1  <0>         0.1300
     32 H32       -12.7304   -3.8657   56.9345 H       1  <0>         0.1200
     33 H33        -9.9737    0.2420   57.0582 H       1  <0>         0.1300
     34 H34       -11.7015    1.9494   54.0732 H       1  <0>         0.1800
     35 H35        -6.2722    1.4296   53.3366 H       1  <0>         0.4200
     36 H36        -4.5023    2.0350   53.0216 H       1  <0>         0.1300
     37 H37        -2.1738    2.2705   52.2654 H       1  <0>         0.1300
     38 H38        -1.6792    2.6209   49.8813 H       1  <0>         0.1300
     39 H39        -3.5078    2.7393   48.2400 H       1  <0>         0.1300
     40 H40        -5.8430    2.5002   48.9741 H       1  <0>         0.1400
     41 H41       -10.8932   -2.1885   51.6981 H       1  <0>         0.0800
     42 H42       -12.6466   -1.9169   51.8401 H       1  <0>         0.0700
     43 H43       -11.5312   -0.5302   51.8046 H       1  <0>         0.0800
     44 H44       -12.2610   -4.5463   53.7605 H       1  <0>         0.0700
     45 H45       -13.6433   -3.9735   54.7245 H       1  <0>         0.0800
     46 H46       -13.4327   -3.4108   53.0490 H       1  <0>         0.0800
@<TRIPOS>BOND
     1     1     2    1
     2     1    28    1
     3     1    29    1
     4     1    30    1
     5     2     3    1
     6     3     8   ar
     7     3     4   ar
     8     4     5   ar
     9     4    31    1
    10     5     6   ar
    11     5    32    1
    12     6    26    1
    13     6     7   ar
    14     7     8   ar
    15     7     9    1
    16     8    33    1
    17     9    10    1
    18     9    24    2
    19    10    23    1
    20    10    11    2
    21    11    12    1
    22    11    34    1
    23    12    13    1
    24    13    14    1
    25    13    23    2
    26    14    15   am
    27    14    35    1
    28    15    16    2
    29    15    17    1
    30    17    22   ar
    31    17    18   ar
    32    18    19   ar
    33    18    36    1
    34    19    20   ar
    35    19    37    1
    36    20    21   ar
    37    20    38    1
    38    21    22   ar
    39    21    39    1
    40    22    40    1
    41    24    25    1
    42    24    26    1
    43    25    41    1
    44    25    42    1
    45    25    43    1
    46    26    27    1
    47    27    44    1
    48    27    45    1
    49    27    46    1
@<TRIPOS>SUBSTRUCTURE
     1 <0>         1 TEMP              0 ****  ****    0 ROOT


##########                                Name:    ZINC001011676549
##########                DOCK_Rotatable_Bonds:                   6
##########                         Heavy_Atoms:                  24
##########                    Molecular_Weight:             330.387
##########                DOCK_Rotatable_Bonds:                   6
##########                       Formal_Charge:        -1.49012e-07
##########                     HBond_Acceptors:                   7
##########                        HBond_Donors:                   1
##########                         Heavy_Atoms:                  24
##########                          Grid_Score:          -32.615826
##########                     Grid_vdw_energy:          -32.821896
##########                      Grid_es_energy:            0.206070
##########           Internal_energy_repulsive:           13.473327

@<TRIPOS>MOLECULE
ZINC001011676549
 46 48 1 0 0
SMALL
USER_CHARGES


@<TRIPOS>ATOM
      1 C1        -14.6268   -2.9832   55.0831 C.3     1  ZINC001011676549   -0.1700
      2 C2        -13.2856   -3.6404   54.7512 C.3     1  ZINC001011676549    0.1300
      3 H3        -13.4083   -4.7217   54.6886 H       1  ZINC001011676549    0.0900
      4 C4        -12.7511   -3.0943   53.4105 C.3     1  ZINC001011676549    0.1400
      5 H5        -12.2323   -3.8757   52.8551 H       1  ZINC001011676549    0.1100
      6 N6        -13.8399   -2.5280   52.6104 N.am    1  ZINC001011676549   -0.7200
      7 C7        -13.5818   -2.0057   51.3951 C.2     1  ZINC001011676549    0.5200
      8 O8        -12.4480   -2.0031   50.9644 O.2     1  ZINC001011676549   -0.5300
      9 C9        -14.7021   -1.4248   50.5713 C.3     1  ZINC001011676549   -0.0900
     10 C10       -14.1602   -0.3325   49.6856 C.ar    1  ZINC001011676549   -0.1800
     11 C11       -13.7078   -0.6153   48.4064 C.ar    1  ZINC001011676549    0.1600
     12 N12       -13.2386    0.3696   47.6573 N.ar    1  ZINC001011676549   -0.5200
     13 C13       -13.1986    1.6052   48.1141 C.ar    1  ZINC001011676549    0.3000
     14 N14       -13.6200    1.9112   49.3247 N.ar    1  ZINC001011676549   -0.5200
     15 C15       -14.1075    0.9796   50.1284 C.ar    1  ZINC001011676549    0.1600
     16 C16       -11.7594   -1.9875   53.8567 C.3     1  ZINC001011676549   -0.1400
     17 C17       -11.1659   -2.6038   55.1479 C.3     1  ZINC001011676549    0.1000
     18 N18       -12.2963   -3.3086   55.7869 N.am    1  ZINC001011676549   -0.6100
     19 C19       -12.4023   -3.5950   57.0996 C.2     1  ZINC001011676549    0.5800
     20 O20       -13.3824   -4.1820   57.5167 O.2     1  ZINC001011676549   -0.5300
     21 C21       -11.3325   -3.1977   58.0279 C.2     1  ZINC001011676549   -0.1400
     22 C22       -10.4151   -4.0872   58.3622 C.2     1  ZINC001011676549   -0.1500
     23 C23        -9.2915   -3.7737   59.3094 C.3     1  ZINC001011676549    0.0900
     24 O24        -9.1669   -2.3596   59.4724 O.3     1  ZINC001011676549   -0.3800
     25 C25       -10.4081   -1.7189   59.7910 C.3     1  ZINC001011676549    0.0600
     26 C26       -11.3174   -1.7906   58.5592 C.3     1  ZINC001011676549   -0.1100
     27 H27       -14.4942   -1.9037   55.1564 H       1  ZINC001011676549    0.0600
     28 H28       -15.3463   -3.2082   54.2959 H       1  ZINC001011676549    0.0700
     29 H29       -14.9953   -3.3693   56.0334 H       1  ZINC001011676549    0.0800
     30 H30       -14.7464   -2.5290   52.9553 H       1  ZINC001011676549    0.4100
     31 H31       -15.1430   -2.2077   49.9543 H       1  ZINC001011676549    0.1100
     32 H32       -15.4633   -1.0117   51.2331 H       1  ZINC001011676549    0.1100
     33 H33       -13.7375   -1.6257   48.0262 H       1  ZINC001011676549    0.1700
     34 H34       -12.8099    2.3878   47.4793 H       1  ZINC001011676549    0.2000
     35 H35       -14.4515    1.2372   51.1193 H       1  ZINC001011676549    0.1700
     36 H36       -10.9845   -1.8316   53.1062 H       1  ZINC001011676549    0.0900
     37 H37       -12.2841   -1.0570   54.0733 H       1  ZINC001011676549    0.0800
     38 H38       -10.3717   -3.3087   54.9016 H       1  ZINC001011676549    0.0800
     39 H39       -10.7880   -1.8194   55.8038 H       1  ZINC001011676549    0.0800
     40 H40       -10.4751   -5.0787   57.9383 H       1  ZINC001011676549    0.1200
     41 H41        -9.4957   -4.2324   60.2769 H       1  ZINC001011676549    0.0700
     42 H42        -8.3598   -4.1751   58.9106 H       1  ZINC001011676549    0.1100
     43 H43       -10.8800   -2.2310   60.6295 H       1  ZINC001011676549    0.0600
     44 H44       -10.2260   -0.6760   60.0504 H       1  ZINC001011676549    0.1000
     45 H45       -10.9450   -1.1107   57.7930 H       1  ZINC001011676549    0.0900
     46 H46       -12.3307   -1.5019   58.8387 H       1  ZINC001011676549    0.0900
@<TRIPOS>BOND
     1     1     2    1
     2     1    27    1
     3     1    28    1
     4     1    29    1
     5     2     3    1
     6     2    18    1
     7     2     4    1
     8     4     5    1
     9     4     6    1
    10     4    16    1
    11     6     7   am
    12     6    30    1
    13     7     8    2
    14     7     9    1
    15     9    10    1
    16     9    31    1
    17     9    32    1
    18    10    15   ar
    19    10    11   ar
    20    11    12   ar
    21    11    33    1
    22    12    13   ar
    23    13    14   ar
    24    13    34    1
    25    14    15   ar
    26    15    35    1
    27    16    17    1
    28    16    36    1
    29    16    37    1
    30    17    18    1
    31    17    38    1
    32    17    39    1
    33    18    19   am
    34    19    20    2
    35    19    21    1
    36    21    26    1
    37    21    22    2
    38    22    23    1
    39    22    40    1
    40    23    24    1
    41    23    41    1
    42    23    42    1
    43    24    25    1
    44    25    26    1
    45    25    43    1
    46    25    44    1
    47    26    45    1
    48    26    46    1
@<TRIPOS>SUBSTRUCTURE
     1 ZINC001011676549        1 TEMP              0 ****  ****    0 ROOT


##########                                Name:    ZINC001087843226
##########                DOCK_Rotatable_Bonds:                   6
##########                         Heavy_Atoms:                  27
##########                    Molecular_Weight:             368.479
##########                DOCK_Rotatable_Bonds:                   6
##########                       Formal_Charge:        -4.47035e-07
##########                     HBond_Acceptors:                   6
##########                        HBond_Donors:                   1
##########                         Heavy_Atoms:                  27
##########                          Grid_Score:          -32.603519
##########                     Grid_vdw_energy:          -30.640711
##########                      Grid_es_energy:           -1.962808
##########           Internal_energy_repulsive:           28.555346

@<TRIPOS>MOLECULE
ZINC001087843226
 55 58 1 0 0
SMALL
USER_CHARGES


@<TRIPOS>ATOM
      1 C1         -8.4130    2.8117   55.3033 C.3     1  ZINC001087843226   -0.1500
      2 C2         -9.5985    1.9325   55.7062 C.3     1  ZINC001087843226   -0.1500
      3 C3         -9.4389    0.5441   55.0834 C.3     1  ZINC001087843226    0.0700
      4 H4         -8.4820    0.1134   55.3783 H       1  ZINC001087843226    0.1000
      5 C5         -9.5168    0.6465   53.5455 C.3     1  ZINC001087843226    0.1300
      6 H6        -10.0568    1.5447   53.2460 H       1  ZINC001087843226    0.1000
      7 N7         -8.1755    0.6302   52.9567 N.am    1  ZINC001087843226   -0.7200
      8 C8         -7.8575    1.5030   51.9802 C.2     1  ZINC001087843226    0.5600
      9 O9         -8.6842    2.3028   51.5870 O.2     1  ZINC001087843226   -0.5300
     10 C10        -6.5033    1.4878   51.3871 C.ar    1  ZINC001087843226   -0.1400
     11 C11        -6.0660    0.3720   50.6741 C.ar    1  ZINC001087843226   -0.0800
     12 C12        -4.8011    0.3637   50.1231 C.ar    1  ZINC001087843226   -0.1300
     13 C13        -3.9708    1.4580   50.2773 C.ar    1  ZINC001087843226   -0.0400
     14 C14        -2.5909    1.4404   49.6718 C.3     1  ZINC001087843226   -0.1200
     15 C15        -4.3976    2.5718   50.9843 C.ar    1  ZINC001087843226   -0.1100
     16 C16        -5.6617    2.5943   51.5357 C.ar    1  ZINC001087843226   -0.0300
     17 C17        -5.8863    3.9087   52.2518 C.3     1  ZINC001087843226   -0.0800
     18 C18        -4.4768    4.5054   52.4513 C.3     1  ZINC001087843226   -0.1200
     19 C19        -3.6841    3.8727   51.2858 C.3     1  ZINC001087843226   -0.0800
     20 C20       -10.3091   -0.6274   53.1502 C.3     1  ZINC001087843226   -0.1400
     21 C21       -11.3086   -0.7521   54.3271 C.3     1  ZINC001087843226    0.0400
     22 N22       -10.5402   -0.3324   55.5225 N.3     1  ZINC001087843226   -0.5100
     23 C23       -11.4058    0.3548   56.4903 C.3     1  ZINC001087843226    0.1100
     24 C24       -12.5460   -0.5517   56.8766 C.2     1  ZINC001087843226    0.0800
     25 N25       -13.7087   -0.5848   56.2971 N.2     1  ZINC001087843226   -0.2700
     26 O26       -14.4859   -1.5690   56.9604 O.3     1  ZINC001087843226    0.0300
     27 N27       -13.6628   -2.1066   57.9835 N.2     1  ZINC001087843226   -0.2800
     28 C28       -12.5155   -1.4997   57.9185 C.2     1  ZINC001087843226    0.0900
     29 C29       -11.3394   -1.7615   58.8237 C.3     1  ZINC001087843226   -0.0900
     30 H30        -8.5607    3.8201   55.6896 H       1  ZINC001087843226    0.0600
     31 H31        -7.4946    2.3950   55.7169 H       1  ZINC001087843226    0.0600
     32 H32        -8.3390    2.8461   54.2163 H       1  ZINC001087843226    0.0600
     33 H33        -9.6314    1.8420   56.7920 H       1  ZINC001087843226    0.0800
     34 H34       -10.5241    2.3857   55.3512 H       1  ZINC001087843226    0.0700
     35 H35        -7.5162   -0.0088   53.2696 H       1  ZINC001087843226    0.4000
     36 H36        -6.7149   -0.4830   50.5541 H       1  ZINC001087843226    0.1300
     37 H37        -4.4591   -0.4990   49.5707 H       1  ZINC001087843226    0.1300
     38 H38        -2.6332    1.8427   48.6597 H       1  ZINC001087843226    0.0800
     39 H39        -1.9206    2.0502   50.2775 H       1  ZINC001087843226    0.0700
     40 H40        -2.2210    0.4156   49.6403 H       1  ZINC001087843226    0.0700
     41 H41        -6.4955    4.5737   51.6396 H       1  ZINC001087843226    0.0800
     42 H42        -6.3644    3.7371   53.2162 H       1  ZINC001087843226    0.0900
     43 H43        -4.4989    5.5912   52.3579 H       1  ZINC001087843226    0.0800
     44 H44        -4.0621    4.2064   53.4139 H       1  ZINC001087843226    0.0700
     45 H45        -2.6566    3.6746   51.5909 H       1  ZINC001087843226    0.0800
     46 H46        -3.7013    4.5296   50.4162 H       1  ZINC001087843226    0.0800
     47 H47       -10.8340   -0.4833   52.2058 H       1  ZINC001087843226    0.0800
     48 H48        -9.6526   -1.4961   53.1017 H       1  ZINC001087843226    0.0800
     49 H49       -12.1619   -0.0918   54.1718 H       1  ZINC001087843226    0.0600
     50 H50       -11.6412   -1.7845   54.4347 H       1  ZINC001087843226    0.0800
     51 H51       -10.8274    0.6097   57.3783 H       1  ZINC001087843226    0.1200
     52 H52       -11.8019    1.2654   56.0409 H       1  ZINC001087843226    0.0700
     53 H53       -10.6648   -2.4723   58.3463 H       1  ZINC001087843226    0.1000
     54 H54       -10.8098   -0.8273   59.0105 H       1  ZINC001087843226    0.0900
     55 H55       -11.6928   -2.1742   59.7685 H       1  ZINC001087843226    0.0900
@<TRIPOS>BOND
     1     1     2    1
     2     1    30    1
     3     1    31    1
     4     1    32    1
     5     2     3    1
     6     2    33    1
     7     2    34    1
     8     3     4    1
     9     3    22    1
    10     3     5    1
    11     5     6    1
    12     5     7    1
    13     5    20    1
    14     7     8   am
    15     7    35    1
    16     8     9    2
    17     8    10    1
    18    10    16   ar
    19    10    11   ar
    20    11    12   ar
    21    11    36    1
    22    12    13   ar
    23    12    37    1
    24    13    14    1
    25    13    15   ar
    26    14    38    1
    27    14    39    1
    28    14    40    1
    29    15    19    1
    30    15    16   ar
    31    16    17    1
    32    17    18    1
    33    17    41    1
    34    17    42    1
    35    18    19    1
    36    18    43    1
    37    18    44    1
    38    19    45    1
    39    19    46    1
    40    20    21    1
    41    20    47    1
    42    20    48    1
    43    21    22    1
    44    21    49    1
    45    21    50    1
    46    22    23    1
    47    23    24    1
    48    23    51    1
    49    23    52    1
    50    24    28    1
    51    24    25    2
    52    25    26    1
    53    26    27    1
    54    27    28    2
    55    28    29    1
    56    29    53    1
    57    29    54    1
    58    29    55    1
@<TRIPOS>SUBSTRUCTURE
     1 ZINC001087843226        1 TEMP              0 ****  ****    0 ROOT


##########                                Name:    ZINC000274225049
##########                DOCK_Rotatable_Bonds:                   6
##########                         Heavy_Atoms:                  25
##########                    Molecular_Weight:             380.895
##########                DOCK_Rotatable_Bonds:                   6
##########                       Formal_Charge:           0.0200006
##########                     HBond_Acceptors:                   7
##########                        HBond_Donors:                   2
##########                         Heavy_Atoms:                  25
##########                          Grid_Score:          -32.585602
##########                     Grid_vdw_energy:          -27.236109
##########                      Grid_es_energy:           -5.349493
##########           Internal_energy_repulsive:           11.768670

@<TRIPOS>MOLECULE
ZINC000274225049
 46 48 1 0 0
SMALL
USER_CHARGES


@<TRIPOS>ATOM
      1 C1         -9.7928   -2.8061   59.5743 C.3     1  ZINC000274225049   -0.1600
      2 C2        -10.5762   -1.5475   59.1964 C.3     1  ZINC000274225049    0.2000
      3 H3        -11.4930   -1.8317   58.6797 H       1  ZINC000274225049    0.1100
      4 N4         -9.7589   -0.7097   58.3154 N.am    1  ZINC000274225049   -0.7400
      5 C5        -10.2218   -0.3584   57.0993 C.2     1  ZINC000274225049    0.7100
      6 O6        -11.3184   -0.7358   56.7341 O.2     1  ZINC000274225049   -0.5800
      7 N7         -9.4692    0.4110   56.2882 N.am    1  ZINC000274225049   -0.7500
      8 C8         -9.9731    0.7943   54.9671 C.3     1  ZINC000274225049    0.1500
      9 C9         -8.7941    1.0849   54.0362 C.3     1  ZINC000274225049   -0.1000
     10 H10        -8.1458    0.2111   53.9714 H       1  ZINC000274225049    0.1000
     11 C11        -7.9979    2.2946   54.5561 C.3     1  ZINC000274225049   -0.1100
     12 C12        -7.0428    2.7726   53.4443 C.3     1  ZINC000274225049   -0.5900
     13 S13        -7.8593    2.2970   51.8781 S.o2    1  ZINC000274225049    2.3900
     14 O14        -8.2849    3.4677   51.1945 O.2     1  ZINC000274225049   -0.9300
     15 O15        -7.0602    1.3347   51.2038 O.2     1  ZINC000274225049   -0.9300
     16 C16        -9.3128    1.4668   52.6258 C.3     1  ZINC000274225049   -0.5900
     17 C17       -10.9213   -0.7769   60.4446 C.ar    1  ZINC000274225049   -0.0700
     18 C18       -12.0892   -1.0832   61.1631 C.ar    1  ZINC000274225049   -0.0300
     19 C19       -12.9580   -2.1049   60.7425 C.ar    1  ZINC000274225049   -0.1100
     20 C20       -14.0800   -2.3738   61.4639 C.ar    1  ZINC000274225049   -0.1100
     21 C21       -14.3829   -1.6507   62.6163 C.ar    1  ZINC000274225049   -0.1100
     22 C22       -13.5652   -0.6545   63.0536 C.ar    1  ZINC000274225049   -0.1000
     23 C23       -12.3973   -0.3479   62.3350 C.ar    1  ZINC000274225049   -0.0400
     24 C24       -11.5278    0.6739   62.7558 C.ar    1  ZINC000274225049   -0.0300
     25 Cl25      -11.8835    1.5877   64.1884 Cl      1  ZINC000274225049   -0.0600
     26 C26       -10.4043    0.9424   62.0333 C.ar    1  ZINC000274225049   -0.1000
     27 C27       -10.0999    0.2157   60.8845 C.ar    1  ZINC000274225049   -0.1000
     28 H28        -9.5432   -3.3636   58.6716 H       1  ZINC000274225049    0.0700
     29 H29        -8.8760   -2.5220   60.0910 H       1  ZINC000274225049    0.0700
     30 H30       -10.4009   -3.4296   60.2298 H       1  ZINC000274225049    0.0800
     31 H31        -8.8845   -0.4077   58.6073 H       1  ZINC000274225049    0.4000
     32 H32        -8.5938    0.7110   56.5791 H       1  ZINC000274225049    0.4000
     33 H33       -10.5691   -0.0202   54.5552 H       1  ZINC000274225049    0.0800
     34 H34       -10.5919    1.6868   55.0592 H       1  ZINC000274225049    0.0800
     35 H35        -8.6844    3.0990   54.8203 H       1  ZINC000274225049    0.0900
     36 H36        -7.4216    2.0039   55.4344 H       1  ZINC000274225049    0.0900
     37 H37        -6.9172    3.8542   53.4923 H       1  ZINC000274225049    0.1400
     38 H38        -6.0776    2.2742   53.5344 H       1  ZINC000274225049    0.1400
     39 H39        -9.5845    0.5768   52.0582 H       1  ZINC000274225049    0.1400
     40 H40       -10.1562    2.1536   52.6975 H       1  ZINC000274225049    0.1400
     41 H41       -12.7362   -2.6733   59.8514 H       1  ZINC000274225049    0.1300
     42 H42       -14.7461   -3.1592   61.1384 H       1  ZINC000274225049    0.1300
     43 H43       -15.2801   -1.8841   63.1703 H       1  ZINC000274225049    0.1300
     44 H44       -13.8129   -0.1024   63.9482 H       1  ZINC000274225049    0.1300
     45 H45        -9.7380    1.7279   62.3581 H       1  ZINC000274225049    0.1300
     46 H46        -9.2030    0.4488   60.3299 H       1  ZINC000274225049    0.1300
@<TRIPOS>BOND
     1     1     2    1
     2     1    28    1
     3     1    29    1
     4     1    30    1
     5     2     3    1
     6     2     4    1
     7     2    17    1
     8     4     5   am
     9     4    31    1
    10     5     6    2
    11     5     7   am
    12     7     8    1
    13     7    32    1
    14     8     9    1
    15     8    33    1
    16     8    34    1
    17     9    10    1
    18     9    16    1
    19     9    11    1
    20    11    12    1
    21    11    35    1
    22    11    36    1
    23    12    13    1
    24    12    37    1
    25    12    38    1
    26    13    14    2
    27    13    15    2
    28    13    16    1
    29    16    39    1
    30    16    40    1
    31    17    27   ar
    32    17    18   ar
    33    18    23   ar
    34    18    19   ar
    35    19    20   ar
    36    19    41    1
    37    20    21   ar
    38    20    42    1
    39    21    22   ar
    40    21    43    1
    41    22    23   ar
    42    22    44    1
    43    23    24   ar
    44    24    25    1
    45    24    26   ar
    46    26    27   ar
    47    26    45    1
    48    27    46    1
@<TRIPOS>SUBSTRUCTURE
     1 ZINC000274225049        1 TEMP              0 ****  ****    0 ROOT


##########                                Name:    ZINC000191003171
##########                DOCK_Rotatable_Bonds:                   6
##########                         Heavy_Atoms:                  26
##########                    Molecular_Weight:             389.414
##########                DOCK_Rotatable_Bonds:                   6
##########                       Formal_Charge:          -0.0200002
##########                     HBond_Acceptors:                   8
##########                        HBond_Donors:                   1
##########                         Heavy_Atoms:                  26
##########                          Grid_Score:          -32.585449
##########                     Grid_vdw_energy:          -31.957525
##########                      Grid_es_energy:           -0.627925
##########           Internal_energy_repulsive:           17.898453

@<TRIPOS>MOLECULE
ZINC000191003171
 45 46 1 0 0
SMALL
USER_CHARGES


@<TRIPOS>ATOM
      1 C1         -3.5803    3.5259   52.9734 C.3     1  ZINC000191003171   -0.1200
      2 C2         -3.1383    3.0186   51.6249 C.ar    1  ZINC000191003171   -0.0800
      3 C3         -1.8168    2.6721   51.4162 C.ar    1  ZINC000191003171   -0.0700
      4 C4         -1.4113    2.2066   50.1789 C.ar    1  ZINC000191003171   -0.1800
      5 C5          0.0297    1.8293   49.9511 C.3     1  ZINC000191003171    0.5100
      6 F6          0.7274    2.9334   49.4499 F       1  ZINC000191003171   -0.1800
      7 F7          0.6030    1.4257   51.1617 F       1  ZINC000191003171   -0.1800
      8 F8          0.0966    0.7781   49.0302 F       1  ZINC000191003171   -0.1800
      9 C9         -2.3278    2.0871   49.1513 C.ar    1  ZINC000191003171   -0.0800
     10 C10        -3.6499    2.4333   49.3603 C.ar    1  ZINC000191003171   -0.1000
     11 C11        -4.0561    2.8945   50.5983 C.ar    1  ZINC000191003171   -0.0500
     12 C12        -5.4971    3.2719   50.8261 C.3     1  ZINC000191003171    0.0900
     13 N13        -6.1178    2.3049   51.7413 N.3     1  ZINC000191003171   -0.6800
     14 C14        -7.4271    2.7837   52.2045 C.3     1  ZINC000191003171    0.1200
     15 H15        -7.8464    3.4665   51.4656 H       1  ZINC000191003171    0.0600
     16 C16        -7.2600    3.5153   53.5379 C.3     1  ZINC000191003171   -0.1400
     17 C17        -8.3549    1.6106   52.3880 C.ar    1  ZINC000191003171   -0.0100
     18 C18        -7.8597    0.3216   52.3246 C.ar    1  ZINC000191003171   -0.1300
     19 C19        -8.7098   -0.7558   52.4929 C.ar    1  ZINC000191003171    0.0100
     20 C20       -10.0557   -0.5450   52.7244 C.ar    1  ZINC000191003171   -0.7000
     21 S21       -11.1387   -1.9183   52.9387 S.o2    1  ZINC000191003171    2.5000
     22 C22       -11.4935   -1.9417   54.7176 C.3     1  ZINC000191003171   -0.6500
     23 O23       -12.3019   -1.5654   52.2028 O.2     1  ZINC000191003171   -0.9300
     24 O24       -10.3535   -3.0444   52.5721 O.2     1  ZINC000191003171   -0.9300
     25 C25       -10.5528    0.7458   52.7886 C.ar    1  ZINC000191003171    0.1900
     26 F26       -11.8685    0.9531   53.0151 F       1  ZINC000191003171   -0.1200
     27 C27        -9.6997    1.8239   52.6253 C.ar    1  ZINC000191003171   -0.1700
     28 H28        -3.8881    2.6850   53.5949 H       1  ZINC000191003171    0.0800
     29 H29        -2.7533    4.0490   53.4537 H       1  ZINC000191003171    0.0800
     30 H30        -4.4190    4.2105   52.8471 H       1  ZINC000191003171    0.0600
     31 H31        -1.1007    2.7651   52.2192 H       1  ZINC000191003171    0.1400
     32 H32        -2.0111    1.7236   48.1849 H       1  ZINC000191003171    0.1400
     33 H33        -4.3659    2.3402   48.5572 H       1  ZINC000191003171    0.1400
     34 H34        -5.5469    4.2692   51.2630 H       1  ZINC000191003171    0.0900
     35 H35        -6.0292    3.2650   49.8748 H       1  ZINC000191003171    0.0500
     36 H36        -6.1973    1.3969   51.3084 H       1  ZINC000191003171    0.3500
     37 H37        -8.2314    3.8707   53.8815 H       1  ZINC000191003171    0.0600
     38 H38        -6.8406    2.8325   54.2768 H       1  ZINC000191003171    0.0700
     39 H39        -6.5889    4.3639   53.4051 H       1  ZINC000191003171    0.0600
     40 H40        -6.8080    0.1559   52.1433 H       1  ZINC000191003171    0.1500
     41 H41        -8.3219   -1.7625   52.4428 H       1  ZINC000191003171    0.1600
     42 H42       -11.9653   -1.0024   55.0063 H       1  ZINC000191003171    0.1300
     43 H43       -12.1651   -2.7699   54.9433 H       1  ZINC000191003171    0.1400
     44 H44       -10.5634   -2.0666   55.2719 H       1  ZINC000191003171    0.1300
     45 H45       -10.0863    2.8311   52.6756 H       1  ZINC000191003171    0.1500
@<TRIPOS>BOND
     1     1     2    1
     2     1    28    1
     3     1    29    1
     4     1    30    1
     5     2    11   ar
     6     2     3   ar
     7     3     4   ar
     8     3    31    1
     9     4     5    1
    10     4     9   ar
    11     5     6    1
    12     5     7    1
    13     5     8    1
    14     9    10   ar
    15     9    32    1
    16    10    11   ar
    17    10    33    1
    18    11    12    1
    19    12    13    1
    20    12    34    1
    21    12    35    1
    22    13    14    1
    23    13    36    1
    24    14    15    1
    25    14    16    1
    26    14    17    1
    27    16    37    1
    28    16    38    1
    29    16    39    1
    30    17    27   ar
    31    17    18   ar
    32    18    19   ar
    33    18    40    1
    34    19    20   ar
    35    19    41    1
    36    20    21    1
    37    20    25   ar
    38    21    22    1
    39    21    23    2
    40    21    24    2
    41    22    42    1
    42    22    43    1
    43    22    44    1
    44    25    26    1
    45    25    27   ar
    46    27    45    1
@<TRIPOS>SUBSTRUCTURE
     1 ZINC000191003171        1 TEMP              0 ****  ****    0 ROOT


##########                                Name:    ZINC000774689801
##########                DOCK_Rotatable_Bonds:                   4
##########                         Heavy_Atoms:                  24
##########                    Molecular_Weight:             347.395
##########                DOCK_Rotatable_Bonds:                   4
##########                       Formal_Charge:         -0.00999961
##########                     HBond_Acceptors:                   8
##########                        HBond_Donors:                   1
##########                         Heavy_Atoms:                  24
##########                          Grid_Score:          -32.555851
##########                     Grid_vdw_energy:          -32.636452
##########                      Grid_es_energy:            0.080600
##########           Internal_energy_repulsive:            4.186606

@<TRIPOS>MOLECULE
ZINC000774689801
 41 44 1 0 0
SMALL
USER_CHARGES


@<TRIPOS>ATOM
      1 C1         -6.2949    0.4000   50.4368 C.3     1  ZINC000774689801   -0.1200
      2 C2         -5.9093    1.5084   51.3823 C.2     1  ZINC000774689801    0.0600
      3 C3         -6.8074    2.1265   52.1660 C.2     1  ZINC000774689801   -0.2800
      4 C4         -8.2374    1.8137   52.2041 C.2     1  ZINC000774689801    0.5500
      5 O5         -9.0465    2.6134   51.7736 O.2     1  ZINC000774689801   -0.4900
      6 O6         -8.6575    0.6386   52.7165 O.3     1  ZINC000774689801   -0.3400
      7 C7        -10.0907    0.4589   52.8646 C.3     1  ZINC000774689801    0.0900
      8 C8        -10.3683   -0.8779   53.5553 C.3     1  ZINC000774689801   -0.1300
      9 H9         -9.8477   -0.9275   54.5116 H       1  ZINC000774689801    0.1200
     10 C10       -11.8884   -1.0781   53.7557 C.3     1  ZINC000774689801   -0.1300
     11 C11       -12.0397   -2.5974   53.5206 C.3     1  ZINC000774689801    0.1000
     12 N12       -10.9124   -2.9746   52.6597 N.am    1  ZINC000774689801   -0.7400
     13 C13        -9.9534   -2.0295   52.6662 C.2     1  ZINC000774689801    0.5200
     14 O14        -8.9125   -2.0917   52.0469 O.2     1  ZINC000774689801   -0.5100
     15 S15        -6.0271    3.3617   53.1391 S.3     1  ZINC000774689801    0.3000
     16 C16        -4.4574    2.9943   52.4341 C.2     1  ZINC000774689801    0.1000
     17 C17        -4.5956    1.9568   51.5062 C.2     1  ZINC000774689801   -0.2500
     18 C18        -3.3709    1.5145   50.8126 C.2     1  ZINC000774689801    0.5700
     19 O19        -3.4117    0.6170   49.9900 O.2     1  ZINC000774689801   -0.5000
     20 N20        -2.2009    2.1274   51.1093 N.am    1  ZINC000774689801   -0.5500
     21 C21        -0.8581    1.8659   50.5630 C.3     1  ZINC000774689801    0.0900
     22 C22        -0.0196    3.1140   50.9081 C.3     1  ZINC000774689801   -0.1300
     23 C23        -0.7439    3.6434   52.1646 C.3     1  ZINC000774689801   -0.0800
     24 C24        -2.1669    3.1289   52.0245 C.2     1  ZINC000774689801    0.4200
     25 N25        -3.2424    3.5272   52.6504 N.2     1  ZINC000774689801   -0.5100
     26 H26        -6.2220   -0.5582   50.9512 H       1  ZINC000774689801    0.0800
     27 H27        -7.3191    0.5526   50.0965 H       1  ZINC000774689801    0.1000
     28 H28        -5.6225    0.4038   49.5789 H       1  ZINC000774689801    0.0800
     29 H29       -10.4984    1.2706   53.4670 H       1  ZINC000774689801    0.0900
     30 H30       -10.5611    0.4644   51.8814 H       1  ZINC000774689801    0.0800
     31 H31       -12.1872   -0.8085   54.7686 H       1  ZINC000774689801    0.1000
     32 H32       -12.4571   -0.5109   53.0188 H       1  ZINC000774689801    0.0900
     33 H33       -11.9861   -3.1330   54.4685 H       1  ZINC000774689801    0.0800
     34 H34       -12.9842   -2.8094   53.0196 H       1  ZINC000774689801    0.0800
     35 H35       -10.8635   -3.7999   52.1523 H       1  ZINC000774689801    0.4100
     36 H36        -0.4268    0.9810   51.0310 H       1  ZINC000774689801    0.1000
     37 H37        -0.9101    1.7341   49.4823 H       1  ZINC000774689801    0.1000
     38 H38         1.0102    2.8405   51.1378 H       1  ZINC000774689801    0.1100
     39 H39        -0.0567    3.8443   50.0998 H       1  ZINC000774689801    0.0900
     40 H40        -0.2816    3.2442   53.0674 H       1  ZINC000774689801    0.1200
     41 H41        -0.7327    4.7333   52.1799 H       1  ZINC000774689801    0.1200
@<TRIPOS>BOND
     1     1     2    1
     2     1    26    1
     3     1    27    1
     4     1    28    1
     5     2    17    1
     6     2     3    2
     7     3     4    1
     8     3    15    1
     9     4     5    2
    10     4     6    1
    11     6     7    1
    12     7     8    1
    13     7    29    1
    14     7    30    1
    15     8     9    1
    16     8    13    1
    17     8    10    1
    18    10    11    1
    19    10    31    1
    20    10    32    1
    21    11    12    1
    22    11    33    1
    23    11    34    1
    24    12    13   am
    25    12    35    1
    26    13    14    2
    27    15    16    1
    28    16    25    1
    29    16    17    2
    30    17    18    1
    31    18    19    2
    32    18    20   am
    33    20    24    1
    34    20    21    1
    35    21    22    1
    36    21    36    1
    37    21    37    1
    38    22    23    1
    39    22    38    1
    40    22    39    1
    41    23    24    1
    42    23    40    1
    43    23    41    1
    44    24    25    2
@<TRIPOS>SUBSTRUCTURE
     1 ZINC000774689801        1 TEMP              0 ****  ****    0 ROOT


##########                                Name:    ZINC000545381384
##########                DOCK_Rotatable_Bonds:                   6
##########                         Heavy_Atoms:                  30
##########                    Molecular_Weight:             405.543
##########                DOCK_Rotatable_Bonds:                   6
##########                       Formal_Charge:                0.05
##########                     HBond_Acceptors:                   6
##########                        HBond_Donors:                   1
##########                         Heavy_Atoms:                  30
##########                          Grid_Score:          -32.554314
##########                     Grid_vdw_energy:          -31.171362
##########                      Grid_es_energy:           -1.382952
##########           Internal_energy_repulsive:           16.434486

@<TRIPOS>MOLECULE
ZINC000545381384
 61 64 1 0 0
SMALL
USER_CHARGES


@<TRIPOS>ATOM
      1 C1        -14.7790   -3.2855   55.2987 C.3     1  ZINC000545381384   -0.2000
      2 C2        -13.4567   -3.9411   54.8955 C.3     1  ZINC000545381384    0.0500
      3 N3        -12.5704   -2.9311   54.3019 N.3     1  ZINC000545381384   -0.5300
      4 C4        -11.6588   -3.5407   53.3209 C.3     1  ZINC000545381384    0.0500
      5 C5        -11.0382   -2.4284   52.4761 C.3     1  ZINC000545381384   -0.0700
      6 C6        -10.4599   -1.3611   53.3741 C.ar    1  ZINC000545381384    0.1800
      7 C7        -10.8264   -1.2720   54.7119 C.ar    1  ZINC000545381384   -0.0800
      8 C8        -11.8050   -2.2298   55.3376 C.3     1  ZINC000545381384    0.0900
      9 C9        -10.2776   -0.2727   55.5117 C.ar    1  ZINC000545381384   -0.0700
     10 C10       -10.6501   -0.1500   56.9372 C.2     1  ZINC000545381384    0.5800
     11 O11       -11.7269    0.3223   57.2455 O.2     1  ZINC000545381384   -0.4800
     12 N12        -9.7958   -0.5618   57.8948 N.am    1  ZINC000545381384   -0.6400
     13 C13       -10.1475   -0.4477   59.2382 C.2     1  ZINC000545381384    0.3000
     14 C14       -10.4286    0.7076   59.9019 C.2     1  ZINC000545381384   -0.2700
     15 C15       -10.7328    0.3784   61.2253 C.2     1  ZINC000545381384    0.1000
     16 C16       -11.1045    1.3534   62.3125 C.3     1  ZINC000545381384   -0.0300
     17 C17       -12.6209    1.3376   62.5152 C.3     1  ZINC000545381384   -0.0600
     18 C18       -13.0617    2.6488   63.1689 C.3     1  ZINC000545381384   -0.1500
     19 C19       -13.3150    1.1846   61.1603 C.3     1  ZINC000545381384   -0.1400
     20 C20       -13.0025    0.1635   63.4191 C.3     1  ZINC000545381384   -0.1400
     21 N21       -10.6408   -0.9197   61.3605 N.2     1  ZINC000545381384   -0.2700
     22 N22       -10.2784   -1.4689   60.1239 N.pl3   1  ZINC000545381384   -0.3900
     23 C23       -10.0694   -2.8907   59.8390 C.3     1  ZINC000545381384    0.1000
     24 C24        -9.3522    0.6225   54.9216 C.ar    1  ZINC000545381384   -0.0700
     25 C25        -8.7557    1.6530   55.6592 C.ar    1  ZINC000545381384   -0.1100
     26 C26        -7.8693    2.4907   55.0515 C.ar    1  ZINC000545381384   -0.1000
     27 C27        -7.5486    2.3355   53.7044 C.ar    1  ZINC000545381384   -0.1000
     28 C28        -8.1104    1.3460   52.9584 C.ar    1  ZINC000545381384   -0.0900
     29 C29        -9.0300    0.4610   53.5513 C.ar    1  ZINC000545381384    0.1400
     30 N30        -9.5970   -0.5174   52.8466 N.ar    1  ZINC000545381384   -0.4600
     31 H31       -14.5836   -2.4755   56.0014 H       1  ZINC000545381384    0.0600
     32 H32       -15.2719   -2.8865   54.4122 H       1  ZINC000545381384    0.0600
     33 H33       -15.4237   -4.0275   55.7699 H       1  ZINC000545381384    0.0700
     34 H34       -12.9800   -4.3697   55.7771 H       1  ZINC000545381384    0.0900
     35 H35       -13.6490   -4.7290   54.1672 H       1  ZINC000545381384    0.0800
     36 H36       -10.8722   -4.0866   53.8421 H       1  ZINC000545381384    0.0500
     37 H37       -12.2158   -4.2216   52.6774 H       1  ZINC000545381384    0.0900
     38 H38       -10.2467   -2.8456   51.8536 H       1  ZINC000545381384    0.1000
     39 H39       -11.8045   -1.9883   51.8380 H       1  ZINC000545381384    0.1000
     40 H40       -12.4905   -1.6763   55.9793 H       1  ZINC000545381384    0.0900
     41 H41       -11.2616   -2.9581   55.9395 H       1  ZINC000545381384    0.0700
     42 H42        -8.9360   -0.9376   57.6488 H       1  ZINC000545381384    0.4100
     43 H43       -10.4179    1.7018   59.4803 H       1  ZINC000545381384    0.1700
     44 H44       -10.6109    1.0673   63.2413 H       1  ZINC000545381384    0.0800
     45 H45       -10.7866    2.3558   62.0259 H       1  ZINC000545381384    0.0800
     46 H46       -12.7900    3.4852   62.5251 H       1  ZINC000545381384    0.0500
     47 H47       -14.1421    2.6375   63.3133 H       1  ZINC000545381384    0.0500
     48 H48       -12.5673    2.7578   64.1343 H       1  ZINC000545381384    0.0800
     49 H49       -13.0009    0.2505   60.6946 H       1  ZINC000545381384    0.0600
     50 H50       -14.3953    1.1734   61.3047 H       1  ZINC000545381384    0.0600
     51 H51       -13.0431    2.0210   60.5164 H       1  ZINC000545381384    0.0600
     52 H52       -12.5080    0.2726   64.3844 H       1  ZINC000545381384    0.0500
     53 H53       -14.0828    0.1523   63.5634 H       1  ZINC000545381384    0.0500
     54 H54       -12.6883   -0.7706   62.9533 H       1  ZINC000545381384    0.0500
     55 H55       -11.0103   -3.3396   59.5205 H       1  ZINC000545381384    0.0800
     56 H56        -9.3293   -2.9974   59.0460 H       1  ZINC000545381384    0.0800
     57 H57        -9.7132   -3.3929   60.7383 H       1  ZINC000545381384    0.1000
     58 H58        -8.9973    1.7832   56.7038 H       1  ZINC000545381384    0.1300
     59 H59        -7.4097    3.2849   55.6210 H       1  ZINC000545381384    0.1300
     60 H60        -6.8429    3.0117   53.2449 H       1  ZINC000545381384    0.1400
     61 H61        -7.8516    1.2402   51.9152 H       1  ZINC000545381384    0.1400
@<TRIPOS>BOND
     1     1     2    1
     2     1    31    1
     3     1    32    1
     4     1    33    1
     5     2     3    1
     6     2    34    1
     7     2    35    1
     8     3     8    1
     9     3     4    1
    10     4     5    1
    11     4    36    1
    12     4    37    1
    13     5     6    1
    14     5    38    1
    15     5    39    1
    16     6    30   ar
    17     6     7   ar
    18     7     8    1
    19     7     9   ar
    20     8    40    1
    21     8    41    1
    22     9    10    1
    23     9    24   ar
    24    10    11    2
    25    10    12   am
    26    12    13    1
    27    12    42    1
    28    13    22    1
    29    13    14    2
    30    14    15    1
    31    14    43    1
    32    15    16    1
    33    15    21    2
    34    16    17    1
    35    16    44    1
    36    16    45    1
    37    17    18    1
    38    17    19    1
    39    17    20    1
    40    18    46    1
    41    18    47    1
    42    18    48    1
    43    19    49    1
    44    19    50    1
    45    19    51    1
    46    20    52    1
    47    20    53    1
    48    20    54    1
    49    21    22    1
    50    22    23    1
    51    23    55    1
    52    23    56    1
    53    23    57    1
    54    24    29   ar
    55    24    25   ar
    56    25    26   ar
    57    25    58    1
    58    26    27   ar
    59    26    59    1
    60    27    28   ar
    61    27    60    1
    62    28    29   ar
    63    28    61    1
    64    29    30   ar
@<TRIPOS>SUBSTRUCTURE
     1 ZINC000545381384        1 TEMP              0 ****  ****    0 ROOT


##########                                Name:    ZINC000416583757
##########                DOCK_Rotatable_Bonds:                   7
##########                         Heavy_Atoms:                  20
##########                    Molecular_Weight:             380.693
##########                DOCK_Rotatable_Bonds:                   7
##########                       Formal_Charge:         1.04308e-07
##########                     HBond_Acceptors:                   7
##########                        HBond_Donors:                   1
##########                         Heavy_Atoms:                  20
##########                          Grid_Score:          -32.540768
##########                     Grid_vdw_energy:          -30.838234
##########                      Grid_es_energy:           -1.702533
##########           Internal_energy_repulsive:            9.945908

@<TRIPOS>MOLECULE
ZINC000416583757
 35 35 1 0 0
SMALL
USER_CHARGES


@<TRIPOS>ATOM
      1 C1          3.1282    1.8993   49.7149 C.3     1  ZINC000416583757   -0.1500
      2 C2          2.5155    2.4033   48.4067 C.3     1  ZINC000416583757   -0.0200
      3 H3          2.8105    3.4398   48.2429 H       1  ZINC000416583757    0.1200
      4 C4          2.9953    1.5742   47.2889 C.1     1  ZINC000416583757    0.2100
      5 N5          3.3654    0.9345   46.4263 N.1     1  ZINC000416583757   -0.4200
      6 C6          0.9905    2.3140   48.4900 C.3     1  ZINC000416583757    0.1300
      7 N7          0.5258    3.0085   49.6933 N.am    1  ZINC000416583757   -1.0100
      8 C8          0.7681    4.4448   49.8497 C.3     1  ZINC000416583757    0.0800
      9 S9         -0.2734    2.1700   50.8768 S.o2    1  ZINC000416583757    2.7800
     10 O10         0.5596    1.0717   51.2224 O.2     1  ZINC000416583757   -0.9700
     11 O11        -0.7194    3.1343   51.8203 O.2     1  ZINC000416583757   -0.9700
     12 N12        -1.6344    1.5259   50.1874 N.am    1  ZINC000416583757   -1.1300
     13 C13        -2.6397    2.4076   49.5889 C.3     1  ZINC000416583757    0.1600
     14 C14        -3.9834    2.1344   50.2140 C.ar    1  ZINC000416583757   -0.0800
     15 C15        -4.5849    0.9014   50.0473 C.ar    1  ZINC000416583757   -0.0800
     16 C16        -5.8186    0.6499   50.6214 C.ar    1  ZINC000416583757   -0.0300
     17 Cl17       -6.5739   -0.8991   50.4126 Cl      1  ZINC000416583757   -0.0500
     18 C18        -6.4495    1.6329   51.3622 C.ar    1  ZINC000416583757   -0.0700
     19 C19        -5.8469    2.8668   51.5287 C.ar    1  ZINC000416583757   -0.0800
     20 Br20       -6.7088    4.2113   52.5412 Br      1  ZINC000416583757   -0.0300
     21 C21        -4.6114    3.1153   50.9586 C.ar    1  ZINC000416583757   -0.0700
     22 H22         4.2121    1.8479   49.6125 H       1  ZINC000416583757    0.0700
     23 H23         2.8717    2.5838   50.5235 H       1  ZINC000416583757    0.0800
     24 H24         2.7371    0.9073   49.9408 H       1  ZINC000416583757    0.0700
     25 H25         0.5505    2.7805   47.6085 H       1  ZINC000416583757    0.0900
     26 H26         0.6898    1.2674   48.5355 H       1  ZINC000416583757    0.1000
     27 H27        -0.0673    5.0025   49.4264 H       1  ZINC000416583757    0.0700
     28 H28         0.8652    4.6838   50.9087 H       1  ZINC000416583757    0.0800
     29 H29         1.6870    4.7170   49.3302 H       1  ZINC000416583757    0.0800
     30 H30        -1.7659    0.5650   50.1799 H       1  ZINC000416583757    0.4200
     31 H31        -2.3620    3.4470   49.7642 H       1  ZINC000416583757    0.0800
     32 H32        -2.6934    2.2219   48.5162 H       1  ZINC000416583757    0.1000
     33 H33        -4.0923    0.1341   49.4685 H       1  ZINC000416583757    0.1500
     34 H34        -7.4126    1.4373   51.8103 H       1  ZINC000416583757    0.1500
     35 H35        -4.1409    4.0788   51.0886 H       1  ZINC000416583757    0.1400
@<TRIPOS>BOND
     1     1     2    1
     2     1    22    1
     3     1    23    1
     4     1    24    1
     5     2     3    1
     6     2     4    1
     7     2     6    1
     8     4     5    3
     9     6     7    1
    10     6    25    1
    11     6    26    1
    12     7     8    1
    13     7     9   am
    14     8    27    1
    15     8    28    1
    16     8    29    1
    17     9    10    2
    18     9    11    2
    19     9    12   am
    20    12    13    1
    21    12    30    1
    22    13    14    1
    23    13    31    1
    24    13    32    1
    25    14    21   ar
    26    14    15   ar
    27    15    16   ar
    28    15    33    1
    29    16    17    1
    30    16    18   ar
    31    18    19   ar
    32    18    34    1
    33    19    20    1
    34    19    21   ar
    35    21    35    1
@<TRIPOS>SUBSTRUCTURE
     1 ZINC000416583757        1 TEMP              0 ****  ****    0 ROOT


##########                                Name:    ZINC000518234532
##########                DOCK_Rotatable_Bonds:                   5
##########                         Heavy_Atoms:                  25
##########                    Molecular_Weight:             408.267
##########                DOCK_Rotatable_Bonds:                   5
##########                       Formal_Charge:         -0.00999981
##########                     HBond_Acceptors:                   5
##########                        HBond_Donors:                   1
##########                         Heavy_Atoms:                  25
##########                          Grid_Score:          -32.532986
##########                     Grid_vdw_energy:          -31.442980
##########                      Grid_es_energy:           -1.090007
##########           Internal_energy_repulsive:           15.502225

@<TRIPOS>MOLECULE
ZINC000518234532
 44 46 1 0 0
SMALL
USER_CHARGES


@<TRIPOS>ATOM
      1 C1         -0.3382    5.0672   50.9572 C.3     1  ZINC000518234532   -0.1600
      2 C2         -0.5366    3.8226   51.8247 C.3     1  ZINC000518234532    0.1800
      3 H3          0.3771    3.2282   51.8218 H       1  ZINC000518234532    0.1100
      4 N4         -0.8506    4.2287   53.1969 N.am    1  ZINC000518234532   -0.7300
      5 C5          0.0732    4.0908   54.1685 C.2     1  ZINC000518234532    0.5200
      6 O6          1.1649    3.6319   53.9066 O.2     1  ZINC000518234532   -0.5200
      7 C7         -0.2504    4.5068   55.5803 C.3     1  ZINC000518234532   -0.0700
      8 H8         -0.4671    5.5749   55.6037 H       1  ZINC000518234532    0.1100
      9 C9          0.9457    4.2090   56.4866 C.3     1  ZINC000518234532   -0.1400
     10 C10        -1.4527    3.7396   56.0670 C.ar    1  ZINC000518234532   -0.1000
     11 C11        -1.3373    2.3981   56.3776 C.ar    1  ZINC000518234532   -0.0600
     12 C12        -2.4402    1.6939   56.8241 C.ar    1  ZINC000518234532   -0.1300
     13 C13        -3.6596    2.3307   56.9598 C.ar    1  ZINC000518234532   -0.0900
     14 C14        -3.7776    3.6724   56.6491 C.ar    1  ZINC000518234532   -0.1600
     15 C15        -2.6724    4.3800   56.2083 C.ar    1  ZINC000518234532    0.1000
     16 F16        -2.7865    5.6914   55.9045 F       1  ZINC000518234532   -0.1400
     17 C17        -1.6723    3.0008   51.2718 C.ar    1  ZINC000518234532   -0.0600
     18 C18        -2.9780    3.3342   51.5779 C.ar    1  ZINC000518234532   -0.1100
     19 C19        -4.0254    2.5801   51.0698 C.ar    1  ZINC000518234532    0.0800
     20 C20        -3.7587    1.4899   50.2503 C.ar    1  ZINC000518234532    0.0600
     21 C21        -2.4462    1.1593   49.9474 C.ar    1  ZINC000518234532   -0.0800
     22 C22        -1.4065    1.9172   50.4539 C.ar    1  ZINC000518234532   -0.0800
     23 Br23        0.3817    1.4645   50.0381 Br      1  ZINC000518234532   -0.0300
     24 O24        -4.7721    0.7416   49.7350 O.3     1  ZINC000518234532   -0.3000
     25 C25        -6.0535    0.8761   50.3593 C.3     1  ZINC000518234532    0.0200
     26 C26        -6.3377    2.3714   50.5559 C.3     1  ZINC000518234532    0.0200
     27 O27        -5.3060    2.9187   51.3838 O.3     1  ZINC000518234532   -0.3000
     28 H28         0.4833    5.6616   51.3571 H       1  ZINC000518234532    0.0700
     29 H29        -0.1047    4.7650   49.9363 H       1  ZINC000518234532    0.0700
     30 H30        -1.2518    5.6616   50.9602 H       1  ZINC000518234532    0.0600
     31 H31        -1.7233    4.5968   53.4061 H       1  ZINC000518234532    0.4000
     32 H32         1.8154    4.7640   56.1347 H       1  ZINC000518234532    0.0700
     33 H33         0.7116    4.5099   57.5078 H       1  ZINC000518234532    0.0700
     34 H34         1.1624    3.1410   56.4632 H       1  ZINC000518234532    0.0700
     35 H35        -0.3852    1.8994   56.2713 H       1  ZINC000518234532    0.1300
     36 H36        -2.3491    0.6456   57.0667 H       1  ZINC000518234532    0.1300
     37 H37        -4.5205    1.7796   57.3083 H       1  ZINC000518234532    0.1300
     38 H38        -4.7305    4.1695   56.7546 H       1  ZINC000518234532    0.1400
     39 H39        -3.1832    4.1827   52.2138 H       1  ZINC000518234532    0.1400
     40 H40        -2.2362    0.3113   49.3126 H       1  ZINC000518234532    0.1500
     41 H41        -6.8208    0.4366   49.7219 H       1  ZINC000518234532    0.1300
     42 H42        -6.0458    0.3731   51.3263 H       1  ZINC000518234532    0.0800
     43 H43        -6.3394    2.8754   49.5894 H       1  ZINC000518234532    0.0800
     44 H44        -7.3055    2.5009   51.0402 H       1  ZINC000518234532    0.1300
@<TRIPOS>BOND
     1     1     2    1
     2     1    28    1
     3     1    29    1
     4     1    30    1
     5     2     3    1
     6     2     4    1
     7     2    17    1
     8     4     5   am
     9     4    31    1
    10     5     6    2
    11     5     7    1
    12     7     8    1
    13     7     9    1
    14     7    10    1
    15     9    32    1
    16     9    33    1
    17     9    34    1
    18    10    15   ar
    19    10    11   ar
    20    11    12   ar
    21    11    35    1
    22    12    13   ar
    23    12    36    1
    24    13    14   ar
    25    13    37    1
    26    14    15   ar
    27    14    38    1
    28    15    16    1
    29    17    22   ar
    30    17    18   ar
    31    18    19   ar
    32    18    39    1
    33    19    27    1
    34    19    20   ar
    35    20    21   ar
    36    20    24    1
    37    21    22   ar
    38    21    40    1
    39    22    23    1
    40    24    25    1
    41    25    26    1
    42    25    41    1
    43    25    42    1
    44    26    27    1
    45    26    43    1
    46    26    44    1
@<TRIPOS>SUBSTRUCTURE
     1 ZINC000518234532        1 TEMP              0 ****  ****    0 ROOT


##########                                Name:    ZINC000811540126
##########                DOCK_Rotatable_Bonds:                   7
##########                         Heavy_Atoms:                  21
##########                    Molecular_Weight:             397.212
##########                DOCK_Rotatable_Bonds:                   7
##########                       Formal_Charge:           0.0100001
##########                     HBond_Acceptors:                   4
##########                        HBond_Donors:                   3
##########                         Heavy_Atoms:                  21
##########                          Grid_Score:          -32.521992
##########                     Grid_vdw_energy:          -29.889828
##########                      Grid_es_energy:           -2.632164
##########           Internal_energy_repulsive:            9.263092

@<TRIPOS>MOLECULE
ZINC000811540126
 37 38 1 0 0
SMALL
USER_CHARGES


@<TRIPOS>ATOM
      1 C1        -12.4682   -1.1531   60.7314 C.3     1  ZINC000811540126   -0.1600
      2 C2        -11.3549   -1.7021   59.8368 C.3     1  ZINC000811540126    0.1200
      3 H3        -10.9145   -2.5830   60.3040 H       1  ZINC000811540126    0.1000
      4 N4        -11.9124   -2.0683   58.5325 N.am    1  ZINC000811540126   -0.7200
      5 C5        -11.3662   -3.0774   57.8255 C.2     1  ZINC000811540126    0.5700
      6 O6        -10.4116   -3.6847   58.2709 O.2     1  ZINC000811540126   -0.5100
      7 C7        -11.9265   -3.4450   56.5112 C.ar    1  ZINC000811540126   -0.1600
      8 C8        -11.3797   -2.9136   55.3410 C.ar    1  ZINC000811540126   -0.0400
      9 C9        -11.9080   -3.2612   54.1158 C.ar    1  ZINC000811540126   -0.1200
     10 I10       -11.0868   -2.4631   52.3615 I       1  ZINC000811540126   -0.0300
     11 C11       -12.9795   -4.1363   54.0397 C.ar    1  ZINC000811540126   -0.0400
     12 C12       -13.5296   -4.6685   55.1892 C.ar    1  ZINC000811540126   -0.1500
     13 C13       -13.0070   -4.3343   56.4293 C.ar    1  ZINC000811540126    0.1900
     14 O14       -13.5462   -4.8568   57.5592 O.3     1  ZINC000811540126   -0.4700
     15 C15       -10.2776   -0.6321   59.6487 C.3     1  ZINC000811540126    0.1400
     16 H16       -10.6997    0.2183   59.1132 H       1  ZINC000811540126    0.1300
     17 O17        -9.1912   -1.1768   58.8971 O.3     1  ZINC000811540126   -0.5400
     18 C18        -9.7786   -0.1793   60.9968 C.ar    1  ZINC000811540126   -0.1200
     19 C19        -9.8198    1.1604   61.3347 C.ar    1  ZINC000811540126   -0.1100
     20 C20        -9.3620    1.5758   62.5712 C.ar    1  ZINC000811540126   -0.1100
     21 C21        -8.8634    0.6512   63.4698 C.ar    1  ZINC000811540126   -0.1200
     22 C22        -8.8230   -0.6886   63.1321 C.ar    1  ZINC000811540126   -0.1100
     23 C23        -9.2848   -1.1045   61.8974 C.ar    1  ZINC000811540126   -0.1100
     24 H24       -13.2357   -1.9154   60.8654 H       1  ZINC000811540126    0.0600
     25 H25       -12.0533   -0.8806   61.7018 H       1  ZINC000811540126    0.0700
     26 H26       -12.9086   -0.2723   60.2642 H       1  ZINC000811540126    0.0700
     27 H27       -12.6747   -1.5847   58.1777 H       1  ZINC000811540126    0.3900
     28 H28       -10.5445   -2.2310   55.3958 H       1  ZINC000811540126    0.1300
     29 H29       -13.3870   -4.4036   53.0760 H       1  ZINC000811540126    0.1400
     30 H30       -14.3649   -5.3498   55.1218 H       1  ZINC000811540126    0.1500
     31 H31       -13.7048   -4.2062   58.2567 H       1  ZINC000811540126    0.4000
     32 H32        -8.5139   -0.5290   58.6589 H       1  ZINC000811540126    0.3700
     33 H33       -10.2093    1.8827   60.6326 H       1  ZINC000811540126    0.1100
     34 H34        -9.3936    2.6226   62.8349 H       1  ZINC000811540126    0.1200
     35 H35        -8.5051    0.9758   64.4356 H       1  ZINC000811540126    0.1200
     36 H36        -8.4332   -1.4109   63.8342 H       1  ZINC000811540126    0.1300
     37 H37        -9.2532   -2.1513   61.6336 H       1  ZINC000811540126    0.1200
@<TRIPOS>BOND
     1     1     2    1
     2     1    24    1
     3     1    25    1
     4     1    26    1
     5     2     3    1
     6     2     4    1
     7     2    15    1
     8     4     5   am
     9     4    27    1
    10     5     6    2
    11     5     7    1
    12     7    13   ar
    13     7     8   ar
    14     8     9   ar
    15     8    28    1
    16     9    10    1
    17     9    11   ar
    18    11    12   ar
    19    11    29    1
    20    12    13   ar
    21    12    30    1
    22    13    14    1
    23    14    31    1
    24    15    16    1
    25    15    17    1
    26    15    18    1
    27    17    32    1
    28    18    23   ar
    29    18    19   ar
    30    19    20   ar
    31    19    33    1
    32    20    21   ar
    33    20    34    1
    34    21    22   ar
    35    21    35    1
    36    22    23   ar
    37    22    36    1
    38    23    37    1
@<TRIPOS>SUBSTRUCTURE
     1 ZINC000811540126        1 TEMP              0 ****  ****    0 ROOT


##########                                Name:    ZINC000550011575
##########                DOCK_Rotatable_Bonds:                   6
##########                         Heavy_Atoms:                  28
##########                    Molecular_Weight:             423.935
##########                DOCK_Rotatable_Bonds:                   6
##########                       Formal_Charge:          -0.0100002
##########                     HBond_Acceptors:                   7
##########                        HBond_Donors:                   0
##########                         Heavy_Atoms:                  28
##########                          Grid_Score:          -32.513935
##########                     Grid_vdw_energy:          -31.240133
##########                      Grid_es_energy:           -1.273802
##########           Internal_energy_repulsive:           35.569710

@<TRIPOS>MOLECULE
ZINC000550011575
 51 53 1 0 0
SMALL
USER_CHARGES


@<TRIPOS>ATOM
      1 C1         -5.8643    3.9355   54.6685 C.3     1  ZINC000550011575   -0.1400
      2 C2         -6.1143    3.5507   53.2089 C.3     1  ZINC000550011575   -0.6100
      3 H3         -5.8972    2.4915   53.0701 H       1  ZINC000550011575    0.1500
      4 C4         -7.5555    3.8182   52.8586 C.2     1  ZINC000550011575    0.5400
      5 O5         -7.8429    4.7617   52.1528 O.2     1  ZINC000550011575   -0.5100
      6 N6         -8.5248    3.0090   53.3297 N.am    1  ZINC000550011575   -0.6000
      7 C7         -9.9257    3.2680   52.9878 C.3     1  ZINC000550011575    0.0600
      8 C8         -8.1777    1.8705   54.1838 C.3     1  ZINC000550011575    0.1500
      9 C9         -8.9715    0.6624   53.7578 C.ar    1  ZINC000550011575   -0.1500
     10 C10       -10.0852    0.2749   54.4826 C.ar    1  ZINC000550011575    0.1400
     11 F11       -10.4613    0.9794   55.5723 F       1  ZINC000550011575   -0.1100
     12 C12       -10.8141   -0.8352   54.0898 C.ar    1  ZINC000550011575   -0.1500
     13 C13       -10.4294   -1.5553   52.9749 C.ar    1  ZINC000550011575   -0.0700
     14 C14        -9.3170   -1.1682   52.2510 C.ar    1  ZINC000550011575   -0.1300
     15 C15        -8.5908   -0.0565   52.6389 C.ar    1  ZINC000550011575    0.0000
     16 Cl16       -7.1945    0.4291   51.7288 Cl      1  ZINC000550011575   -0.0500
     17 S17        -5.0372    4.5349   52.1310 S.o2    1  ZINC000550011575    2.4500
     18 O18        -5.3112    4.1896   50.7800 O.2     1  ZINC000550011575   -0.9200
     19 O19        -5.1200    5.8963   52.5296 O.2     1  ZINC000550011575   -0.9100
     20 C20        -3.3934    3.9040   52.5668 C.3     1  ZINC000550011575   -0.5300
     21 H21        -3.4474    3.3945   53.5289 H       1  ZINC000550011575    0.1500
     22 C22        -2.4163    5.0733   52.6704 C.3     1  ZINC000550011575   -0.1100
     23 C23        -0.9992    4.5081   52.8230 C.3     1  ZINC000550011575   -0.1100
     24 C24        -0.5917    3.8649   51.4989 C.3     1  ZINC000550011575   -0.0900
     25 C25        -1.6519    2.9037   51.0290 C.ar    1  ZINC000550011575   -0.0600
     26 C26        -1.2947    1.9658   50.0693 C.ar    1  ZINC000550011575   -0.1200
     27 C27        -2.2218    1.0612   49.5938 C.ar    1  ZINC000550011575   -0.1100
     28 C28        -3.5171    1.0887   50.0754 C.ar    1  ZINC000550011575   -0.1100
     29 C29        -3.8734    2.0183   51.0307 C.ar    1  ZINC000550011575   -0.1500
     30 C30        -2.9404    2.9278   51.5128 C.ar    1  ZINC000550011575   -0.0800
     31 H31        -4.8744    3.5928   54.9701 H       1  ZINC000550011575    0.0900
     32 H32        -5.9213    5.0189   54.7734 H       1  ZINC000550011575    0.0900
     33 H33        -6.6189    3.4689   55.3016 H       1  ZINC000550011575    0.0800
     34 H34       -10.1802    2.7364   52.0709 H       1  ZINC000550011575    0.0700
     35 H35       -10.5673    2.9224   53.7983 H       1  ZINC000550011575    0.0800
     36 H36       -10.0717    4.3380   52.8399 H       1  ZINC000550011575    0.0700
     37 H37        -7.1129    1.6572   54.0898 H       1  ZINC000550011575    0.1000
     38 H38        -8.4099    2.1105   55.2214 H       1  ZINC000550011575    0.1100
     39 H39       -11.6830   -1.1383   54.6549 H       1  ZINC000550011575    0.1500
     40 H40       -10.9979   -2.4212   52.6691 H       1  ZINC000550011575    0.1500
     41 H41        -9.0170   -1.7319   51.3800 H       1  ZINC000550011575    0.1400
     42 H42        -2.4738    5.6807   51.7672 H       1  ZINC000550011575    0.0800
     43 H43        -2.6640    5.6827   53.5396 H       1  ZINC000550011575    0.0900
     44 H44        -0.3071    5.3138   53.0681 H       1  ZINC000550011575    0.0800
     45 H45        -0.9861    3.7588   53.6145 H       1  ZINC000550011575    0.0700
     46 H46        -0.4541    4.6433   50.7485 H       1  ZINC000550011575    0.0800
     47 H47         0.3466    3.3271   51.6344 H       1  ZINC000550011575    0.0800
     48 H48        -0.2831    1.9443   49.6918 H       1  ZINC000550011575    0.1300
     49 H49        -1.9364    0.3344   48.8475 H       1  ZINC000550011575    0.1300
     50 H50        -4.2480    0.3851   49.7049 H       1  ZINC000550011575    0.1300
     51 H51        -4.8858    2.0395   51.4060 H       1  ZINC000550011575    0.1700
@<TRIPOS>BOND
     1     1     2    1
     2     1    31    1
     3     1    32    1
     4     1    33    1
     5     2     3    1
     6     2     4    1
     7     2    17    1
     8     4     5    2
     9     4     6   am
    10     6     7    1
    11     6     8    1
    12     7    34    1
    13     7    35    1
    14     7    36    1
    15     8     9    1
    16     8    37    1
    17     8    38    1
    18     9    15   ar
    19     9    10   ar
    20    10    11    1
    21    10    12   ar
    22    12    13   ar
    23    12    39    1
    24    13    14   ar
    25    13    40    1
    26    14    15   ar
    27    14    41    1
    28    15    16    1
    29    17    18    2
    30    17    19    2
    31    17    20    1
    32    20    21    1
    33    20    30    1
    34    20    22    1
    35    22    23    1
    36    22    42    1
    37    22    43    1
    38    23    24    1
    39    23    44    1
    40    23    45    1
    41    24    25    1
    42    24    46    1
    43    24    47    1
    44    25    30   ar
    45    25    26   ar
    46    26    27   ar
    47    26    48    1
    48    27    28   ar
    49    27    49    1
    50    28    29   ar
    51    28    50    1
    52    29    30   ar
    53    29    51    1
@<TRIPOS>SUBSTRUCTURE
     1 ZINC000550011575        1 TEMP              0 ****  ****    0 ROOT


##########                                Name:    ZINC000443933644
##########                DOCK_Rotatable_Bonds:                   8
##########                         Heavy_Atoms:                  27
##########                    Molecular_Weight:             402.438
##########                DOCK_Rotatable_Bonds:                   8
##########                       Formal_Charge:          0.00999922
##########                     HBond_Acceptors:                   9
##########                        HBond_Donors:                   2
##########                         Heavy_Atoms:                  27
##########                          Grid_Score:          -32.479973
##########                     Grid_vdw_energy:          -31.358377
##########                      Grid_es_energy:           -1.121595
##########           Internal_energy_repulsive:           37.454693

@<TRIPOS>MOLECULE
ZINC000443933644
 48 49 1 0 0
SMALL
USER_CHARGES


@<TRIPOS>ATOM
      1 C1        -10.1777    0.9906   56.3388 C.3     1  ZINC000443933644   -0.1500
      2 C2        -10.9069   -0.3474   56.4757 C.3     1  ZINC000443933644   -0.1400
      3 C3        -11.4003   -0.8023   55.1008 C.3     1  ZINC000443933644   -0.1000
      4 H4        -10.5493   -0.9199   54.4299 H       1  ZINC000443933644    0.1000
      5 C5        -12.3584    0.2453   54.5305 C.3     1  ZINC000443933644   -0.1700
      6 C6        -12.1301   -2.1400   55.2377 C.3     1  ZINC000443933644    0.1200
      7 H7        -13.0202   -2.0071   55.8527 H       1  ZINC000443933644    0.1300
      8 N8        -11.2416   -3.1186   55.8697 N.am    1  ZINC000443933644   -1.1100
      9 S9        -11.8340   -4.1549   57.0175 S.o2    1  ZINC000443933644    2.6900
     10 O10       -12.9567   -4.8014   56.4334 O.2     1  ZINC000443933644   -0.9400
     11 O11       -10.7151   -4.8596   57.5377 O.2     1  ZINC000443933644   -0.9400
     12 C12       -12.4589   -3.1691   58.3376 C.ar    1  ZINC000443933644   -0.7000
     13 C13       -11.5778   -2.4102   59.1262 C.ar    1  ZINC000443933644    0.0500
     14 C14       -10.1931   -2.4181   58.8843 C.ar    1  ZINC000443933644   -0.1400
     15 C15        -9.3681   -1.6708   59.6674 C.ar    1  ZINC000443933644   -0.0800
     16 C16        -9.8754   -0.8956   60.7085 C.ar    1  ZINC000443933644   -0.1200
     17 C17       -11.2109   -0.8641   60.9719 C.ar    1  ZINC000443933644   -0.0900
     18 C18       -12.0925   -1.6217   60.1848 C.ar    1  ZINC000443933644   -0.0900
     19 C19       -13.4823   -1.6139   60.4281 C.ar    1  ZINC000443933644    0.2300
     20 N20       -14.0114   -0.8446   61.4661 N.am    1  ZINC000443933644   -0.6700
     21 C21       -14.4615   -1.4430   62.5866 C.2     1  ZINC000443933644    0.5100
     22 C22       -15.0325   -0.6126   63.7071 C.3     1  ZINC000443933644   -0.1700
     23 O23       -14.4070   -2.6499   62.6933 O.2     1  ZINC000443933644   -0.5100
     24 C24       -14.3129   -2.3722   59.6316 C.ar    1  ZINC000443933644   -0.1600
     25 C25       -13.7964   -3.1378   58.5906 C.ar    1  ZINC000443933644    0.0400
     26 C26       -12.5384   -2.6426   53.8515 C.3     1  ZINC000443933644    0.4300
     27 F27       -12.4601   -4.0390   53.8199 F       1  ZINC000443933644   -0.1700
     28 F28       -13.8510   -2.2428   53.5785 F       1  ZINC000443933644   -0.1600
     29 F29       -11.6774   -2.1054   52.8885 F       1  ZINC000443933644   -0.1700
     30 H30        -9.3267    0.8736   55.6679 H       1  ZINC000443933644    0.0500
     31 H31       -10.8607    1.7367   55.9327 H       1  ZINC000443933644    0.0600
     32 H32        -9.8263    1.3148   57.3184 H       1  ZINC000443933644    0.0600
     33 H33       -10.2239   -1.0936   56.8818 H       1  ZINC000443933644    0.0700
     34 H34       -11.7579   -0.2305   57.1467 H       1  ZINC000443933644    0.0900
     35 H35       -11.8103    1.1645   54.3233 H       1  ZINC000443933644    0.0700
     36 H36       -12.8000   -0.1303   53.6073 H       1  ZINC000443933644    0.0600
     37 H37       -13.1476    0.4482   55.2543 H       1  ZINC000443933644    0.0700
     38 H38       -10.3063   -3.1595   55.6158 H       1  ZINC000443933644    0.4300
     39 H39        -9.7857   -3.0145   58.0812 H       1  ZINC000443933644    0.1400
     40 H40        -8.3046   -1.6789   59.4796 H       1  ZINC000443933644    0.1300
     41 H41        -9.1994   -0.3115   61.3152 H       1  ZINC000443933644    0.1300
     42 H42       -11.5900   -0.2593   61.7823 H       1  ZINC000443933644    0.1300
     43 H43       -14.0551    0.1207   61.3806 H       1  ZINC000443933644    0.4200
     44 H44       -14.9987    0.4415   63.4317 H       1  ZINC000443933644    0.0800
     45 H45       -16.0661   -0.9080   63.8879 H       1  ZINC000443933644    0.1000
     46 H46       -14.4458   -0.7707   64.6119 H       1  ZINC000443933644    0.1000
     47 H47       -15.3773   -2.3689   59.8147 H       1  ZINC000443933644    0.1500
     48 H48       -14.4664   -3.7243   57.9795 H       1  ZINC000443933644    0.1500
@<TRIPOS>BOND
     1     1     2    1
     2     1    30    1
     3     1    31    1
     4     1    32    1
     5     2     3    1
     6     2    33    1
     7     2    34    1
     8     3     4    1
     9     3     5    1
    10     3     6    1
    11     5    35    1
    12     5    36    1
    13     5    37    1
    14     6     7    1
    15     6     8    1
    16     6    26    1
    17     8     9   am
    18     8    38    1
    19     9    10    2
    20     9    11    2
    21     9    12    1
    22    12    25   ar
    23    12    13   ar
    24    13    18   ar
    25    13    14   ar
    26    14    15   ar
    27    14    39    1
    28    15    16   ar
    29    15    40    1
    30    16    17   ar
    31    16    41    1
    32    17    18   ar
    33    17    42    1
    34    18    19   ar
    35    19    20    1
    36    19    24   ar
    37    20    21   am
    38    20    43    1
    39    21    22    1
    40    21    23    2
    41    22    44    1
    42    22    45    1
    43    22    46    1
    44    24    25   ar
    45    24    47    1
    46    25    48    1
    47    26    27    1
    48    26    28    1
    49    26    29    1
@<TRIPOS>SUBSTRUCTURE
     1 ZINC000443933644        1 TEMP              0 ****  ****    0 ROOT


##########                                Name:    ZINC000632456679
##########                DOCK_Rotatable_Bonds:                   6
##########                         Heavy_Atoms:                  24
##########                    Molecular_Weight:              374.82
##########                DOCK_Rotatable_Bonds:                   6
##########                       Formal_Charge:          -0.0299999
##########                     HBond_Acceptors:                   9
##########                        HBond_Donors:                   1
##########                         Heavy_Atoms:                  24
##########                          Grid_Score:          -32.452751
##########                     Grid_vdw_energy:          -30.805592
##########                      Grid_es_energy:           -1.647158
##########           Internal_energy_repulsive:           30.695370

@<TRIPOS>MOLECULE
ZINC000632456679
 40 41 1 0 0
SMALL
USER_CHARGES


@<TRIPOS>ATOM
      1 C1         -3.7602    3.6863   53.1418 C.3     1  ZINC000632456679   -0.1600
      2 C2         -4.9764    3.6090   52.2165 C.3     1  ZINC000632456679    0.1900
      3 C3         -5.8683    4.8312   52.4433 C.3     1  ZINC000632456679   -0.2000
      4 C4         -4.5081    3.5825   50.7602 C.3     1  ZINC000632456679   -0.6300
      5 S5         -3.2379    2.3035   50.5567 S.o2    1  ZINC000632456679    2.4100
      6 C6         -3.2101    2.0862   48.7559 C.3     1  ZINC000632456679   -0.6600
      7 O7         -1.9871    2.8381   50.9675 O.2     1  ZINC000632456679   -0.9300
      8 O8         -3.7071    1.1008   51.1506 O.2     1  ZINC000632456679   -0.9300
      9 N9         -5.7349    2.3900   52.5079 N.am    1  ZINC000632456679   -0.7200
     10 C10        -6.8528    2.1088   51.8096 C.2     1  ZINC000632456679    0.6200
     11 O11        -7.2326    2.8677   50.9389 O.2     1  ZINC000632456679   -0.5000
     12 C12        -7.6157    0.8804   52.1019 C.2     1  ZINC000632456679   -0.0900
     13 C13        -8.8669    0.8031   52.6447 C.2     1  ZINC000632456679   -0.1300
     14 C14        -9.1225   -0.5943   52.7102 C.2     1  ZINC000632456679    0.0400
     15 C15       -10.3503   -1.2514   53.2230 C.ar    1  ZINC000632456679   -0.0500
     16 C16       -10.9280   -2.3032   52.5155 C.ar    1  ZINC000632456679   -0.0600
     17 C17       -12.0700   -2.9113   52.9963 C.ar    1  ZINC000632456679   -0.1100
     18 C18       -12.6431   -2.4790   54.1786 C.ar    1  ZINC000632456679   -0.0700
     19 C19       -12.0757   -1.4349   54.8876 C.ar    1  ZINC000632456679   -0.0800
     20 Cl20      -12.8013   -0.8985   56.3706 Cl      1  ZINC000632456679   -0.0400
     21 C21       -10.9273   -0.8217   54.4186 C.ar    1  ZINC000632456679    0.1400
     22 F22       -10.3727    0.1975   55.1105 F       1  ZINC000632456679   -0.1100
     23 N23        -8.0587   -1.1856   52.2271 N.2     1  ZINC000632456679   -0.3200
     24 O24        -7.2195   -0.3874   51.8810 O.3     1  ZINC000632456679    0.1400
     25 H25        -4.0938    3.7053   54.1794 H       1  ZINC000632456679    0.0900
     26 H26        -3.1248    2.8156   52.9802 H       1  ZINC000632456679    0.0600
     27 H27        -3.1958    4.5933   52.9250 H       1  ZINC000632456679    0.0700
     28 H28        -5.3039    5.7381   52.2265 H       1  ZINC000632456679    0.0800
     29 H29        -6.7346    4.7762   51.7840 H       1  ZINC000632456679    0.0800
     30 H30        -6.2019    4.8501   53.4809 H       1  ZINC000632456679    0.0900
     31 H31        -5.3545    3.3607   50.1103 H       1  ZINC000632456679    0.1600
     32 H32        -4.0911    4.5540   50.4948 H       1  ZINC000632456679    0.1400
     33 H33        -2.9461    3.0306   48.2800 H       1  ZINC000632456679    0.1300
     34 H34        -2.4725    1.3280   48.4928 H       1  ZINC000632456679    0.1300
     35 H35        -4.1950    1.7693   48.4129 H       1  ZINC000632456679    0.1300
     36 H36        -5.4325    1.7852   53.2035 H       1  ZINC000632456679    0.4200
     37 H37        -9.5110    1.6136   52.9527 H       1  ZINC000632456679    0.1900
     38 H38       -10.4830   -2.6423   51.5918 H       1  ZINC000632456679    0.1500
     39 H39       -12.5176   -3.7268   52.4475 H       1  ZINC000632456679    0.1500
     40 H40       -13.5371   -2.9581   54.5496 H       1  ZINC000632456679    0.1500
@<TRIPOS>BOND
     1     1     2    1
     2     1    25    1
     3     1    26    1
     4     1    27    1
     5     2     3    1
     6     2     4    1
     7     2     9    1
     8     3    28    1
     9     3    29    1
    10     3    30    1
    11     4     5    1
    12     4    31    1
    13     4    32    1
    14     5     6    1
    15     5     7    2
    16     5     8    2
    17     6    33    1
    18     6    34    1
    19     6    35    1
    20     9    10   am
    21     9    36    1
    22    10    11    2
    23    10    12    1
    24    12    24    1
    25    12    13    2
    26    13    14    1
    27    13    37    1
    28    14    15    1
    29    14    23    2
    30    15    21   ar
    31    15    16   ar
    32    16    17   ar
    33    16    38    1
    34    17    18   ar
    35    17    39    1
    36    18    19   ar
    37    18    40    1
    38    19    20    1
    39    19    21   ar
    40    21    22    1
    41    23    24    1
@<TRIPOS>SUBSTRUCTURE
     1 ZINC000632456679        1 TEMP              0 ****  ****    0 ROOT


##########                                Name:    ZINC000444542200
##########                DOCK_Rotatable_Bonds:                   8
##########                         Heavy_Atoms:                  28
##########                    Molecular_Weight:             404.337
##########                DOCK_Rotatable_Bonds:                   8
##########                       Formal_Charge:           0.0200001
##########                     HBond_Acceptors:                  10
##########                        HBond_Donors:                   1
##########                         Heavy_Atoms:                  28
##########                          Grid_Score:          -32.443062
##########                     Grid_vdw_energy:          -27.799282
##########                      Grid_es_energy:           -4.643780
##########           Internal_energy_repulsive:           20.825197

@<TRIPOS>MOLECULE
ZINC000444542200
 45 46 1 0 0
SMALL
USER_CHARGES


@<TRIPOS>ATOM
      1 C1         -5.6193    0.8828   50.9588 C.3     1  ZINC000444542200    0.0300
      2 O2         -6.5980    1.7219   50.3420 O.3     1  ZINC000444542200   -0.3100
      3 C3         -7.6909    2.0428   51.0832 C.ar    1  ZINC000444542200    0.1800
      4 C4         -7.8119    1.5691   52.3807 C.ar    1  ZINC000444542200   -0.1700
      5 C5         -8.9281    1.8973   53.1378 C.ar    1  ZINC000444542200    0.2300
      6 N6         -9.0504    1.4200   54.4476 N.am    1  ZINC000444542200   -0.5800
      7 C7         -8.1424    1.9028   55.4909 C.3     1  ZINC000444542200    0.0700
      8 C8        -10.0037    0.5162   54.7491 C.2     1  ZINC000444542200    0.7100
      9 O9        -10.7574    0.1156   53.8831 O.2     1  ZINC000444542200   -0.5500
     10 N10       -10.1215    0.0565   56.0105 N.am    1  ZINC000444542200   -0.7300
     11 C11       -11.1566   -0.9273   56.3379 C.3     1  ZINC000444542200    0.1700
     12 H12       -11.5107   -1.4006   55.4221 H       1  ZINC000444542200    0.1500
     13 C13       -10.5811   -1.9755   57.2550 C.ar    1  ZINC000444542200   -0.1300
     14 C14        -9.6169   -1.6283   58.1824 C.ar    1  ZINC000444542200   -0.0800
     15 C15        -9.0879   -2.5888   59.0245 C.ar    1  ZINC000444542200   -0.0900
     16 C16        -9.5223   -3.8983   58.9408 C.ar    1  ZINC000444542200   -0.1100
     17 C17       -10.4877   -4.2492   58.0131 C.ar    1  ZINC000444542200    0.0800
     18 F18       -10.9127   -5.5289   57.9307 F       1  ZINC000444542200   -0.1200
     19 C19       -11.0223   -3.2849   57.1725 C.ar    1  ZINC000444542200    0.1000
     20 F20       -11.9648   -3.6250   56.2663 F       1  ZINC000444542200   -0.1100
     21 C21       -12.3246   -0.2260   57.0342 C.3     1  ZINC000444542200    0.4400
     22 F22       -12.4928   -0.7611   58.3159 F       1  ZINC000444542200   -0.1600
     23 F23       -12.0548    1.1432   57.1323 F       1  ZINC000444542200   -0.1700
     24 F24       -13.4942   -0.4188   56.2913 F       1  ZINC000444542200   -0.1800
     25 C25        -9.9224    2.6995   52.5953 C.ar    1  ZINC000444542200   -0.1900
     26 C26        -9.8003    3.1724   51.2977 C.ar    1  ZINC000444542200    0.1800
     27 O27       -10.7738    3.9579   50.7665 O.3     1  ZINC000444542200   -0.3100
     28 C28       -10.5805    4.4132   49.4259 C.3     1  ZINC000444542200    0.0300
     29 C29        -8.6823    2.8485   50.5436 C.ar    1  ZINC000444542200   -0.2900
     30 H30        -5.2333    1.3718   51.8532 H       1  ZINC000444542200    0.0600
     31 H31        -6.0767   -0.0678   51.2331 H       1  ZINC000444542200    0.0600
     32 H32        -4.8015    0.7045   50.2606 H       1  ZINC000444542200    0.1000
     33 H33        -7.0379    0.9448   52.8020 H       1  ZINC000444542200    0.1300
     34 H34        -8.5715    2.7849   55.9663 H       1  ZINC000444542200    0.0700
     35 H35        -7.9985    1.1215   56.2373 H       1  ZINC000444542200    0.0700
     36 H36        -7.1817    2.1611   55.0455 H       1  ZINC000444542200    0.0900
     37 H37        -9.5211    0.3769   56.7017 H       1  ZINC000444542200    0.4100
     38 H38        -9.2761   -0.6057   58.2491 H       1  ZINC000444542200    0.1400
     39 H39        -8.3344   -2.3157   59.7483 H       1  ZINC000444542200    0.1500
     40 H40        -9.1080   -4.6478   59.5989 H       1  ZINC000444542200    0.1500
     41 H41       -10.7914    2.9549   53.1837 H       1  ZINC000444542200    0.1400
     42 H42       -10.4999    3.5550   48.7587 H       1  ZINC000444542200    0.0600
     43 H43       -11.4284    5.0287   49.1253 H       1  ZINC000444542200    0.1000
     44 H44        -9.6656    5.0033   49.3710 H       1  ZINC000444542200    0.0600
     45 H45        -8.5877    3.2172   49.5329 H       1  ZINC000444542200    0.1400
@<TRIPOS>BOND
     1     1     2    1
     2     1    30    1
     3     1    31    1
     4     1    32    1
     5     2     3    1
     6     3    29   ar
     7     3     4   ar
     8     4     5   ar
     9     4    33    1
    10     5     6    1
    11     5    25   ar
    12     6     7    1
    13     6     8   am
    14     7    34    1
    15     7    35    1
    16     7    36    1
    17     8     9    2
    18     8    10   am
    19    10    11    1
    20    10    37    1
    21    11    12    1
    22    11    13    1
    23    11    21    1
    24    13    19   ar
    25    13    14   ar
    26    14    15   ar
    27    14    38    1
    28    15    16   ar
    29    15    39    1
    30    16    17   ar
    31    16    40    1
    32    17    18    1
    33    17    19   ar
    34    19    20    1
    35    21    22    1
    36    21    23    1
    37    21    24    1
    38    25    26   ar
    39    25    41    1
    40    26    27    1
    41    26    29   ar
    42    27    28    1
    43    28    42    1
    44    28    43    1
    45    28    44    1
    46    29    45    1
@<TRIPOS>SUBSTRUCTURE
     1 ZINC000444542200        1 TEMP              0 ****  ****    0 ROOT


##########                                Name:    ZINC000451500596
##########                DOCK_Rotatable_Bonds:                   7
##########                         Heavy_Atoms:                  25
##########                    Molecular_Weight:             365.497
##########                DOCK_Rotatable_Bonds:                   7
##########                       Formal_Charge:           0.0400004
##########                     HBond_Acceptors:                   7
##########                        HBond_Donors:                   2
##########                         Heavy_Atoms:                  25
##########                          Grid_Score:          -32.441635
##########                     Grid_vdw_energy:          -30.914312
##########                      Grid_es_energy:           -1.527323
##########           Internal_energy_repulsive:            8.881839

@<TRIPOS>MOLECULE
ZINC000451500596
 52 54 1 0 0
SMALL
USER_CHARGES


@<TRIPOS>ATOM
      1 C1         -6.7345    0.5944   66.1864 C.3     1  ZINC000451500596   -0.6700
      2 S2         -8.4266    0.1879   65.6745 S.o2    1  ZINC000451500596    2.6100
      3 O3         -8.4752   -1.1107   65.0996 O.2     1  ZINC000451500596   -0.9500
      4 O4         -9.3578    0.5826   66.6727 O.2     1  ZINC000451500596   -0.9600
      5 N5         -8.7309    1.2080   64.4061 N.am    1  ZINC000451500596   -1.1200
      6 C6        -10.0276    1.1642   63.7257 C.3     1  ZINC000451500596    0.1200
      7 C7         -9.8683    1.6721   62.2912 C.3     1  ZINC000451500596   -0.1000
      8 H8         -9.0611    1.1354   61.7929 H       1  ZINC000451500596    0.0900
      9 C9         -9.5718    3.1860   62.2966 C.3     1  ZINC000451500596   -0.1200
     10 C10       -10.3383    3.7275   61.0643 C.3     1  ZINC000451500596   -0.1300
     11 C11       -11.6420    2.8911   61.0780 C.3     1  ZINC000451500596   -0.1300
     12 C12       -11.1841    1.4834   61.5161 C.3     1  ZINC000451500596    0.1400
     13 H13       -11.9362    1.0304   62.1620 H       1  ZINC000451500596    0.1000
     14 N14       -10.9596    0.6400   60.3395 N.am    1  ZINC000451500596   -0.7200
     15 C15       -10.9847   -0.7023   60.4579 C.2     1  ZINC000451500596    0.5300
     16 O16       -11.1917   -1.2120   61.5388 O.2     1  ZINC000451500596   -0.5300
     17 C17       -10.7555   -1.5700   59.2473 C.3     1  ZINC000451500596   -0.1300
     18 H18       -10.2520   -1.0073   58.4612 H       1  ZINC000451500596    0.1000
     19 C19        -9.9398   -2.8344   59.6252 C.3     1  ZINC000451500596   -0.1200
     20 C20       -10.3890   -3.8351   58.5314 C.3     1  ZINC000451500596    0.0500
     21 N21       -11.8237   -3.5463   58.3218 N.3     1  ZINC000451500596   -0.4900
     22 C22       -12.1855   -3.7487   56.9879 C.ar    1  ZINC000451500596    0.0800
     23 C23       -13.1400   -4.7040   56.6627 C.ar    1  ZINC000451500596   -0.0900
     24 C24       -13.4957   -4.9013   55.3429 C.ar    1  ZINC000451500596   -0.1100
     25 C25       -12.9023   -4.1494   54.3455 C.ar    1  ZINC000451500596   -0.1200
     26 C26       -11.9515   -3.1976   54.6657 C.ar    1  ZINC000451500596   -0.1100
     27 C27       -11.5954   -2.9912   55.9840 C.ar    1  ZINC000451500596   -0.1500
     28 C28       -12.0888   -2.1524   58.7330 C.3     1  ZINC000451500596    0.0600
     29 H29        -6.0520    0.4232   65.3540 H       1  ZINC000451500596    0.1300
     30 H30        -6.6870    1.6415   66.4858 H       1  ZINC000451500596    0.1300
     31 H31        -6.4475   -0.0372   67.0272 H       1  ZINC000451500596    0.1300
     32 H32        -8.0506    1.8344   64.1134 H       1  ZINC000451500596    0.4200
     33 H33       -10.3948    0.1380   63.7090 H       1  ZINC000451500596    0.0700
     34 H34       -10.7387    1.7959   64.2580 H       1  ZINC000451500596    0.0900
     35 H35        -9.9472    3.6450   63.2112 H       1  ZINC000451500596    0.0800
     36 H36        -8.5021    3.3657   62.1897 H       1  ZINC000451500596    0.0700
     37 H37       -10.5588    4.7884   61.1822 H       1  ZINC000451500596    0.0700
     38 H38        -9.7740    3.5484   60.1491 H       1  ZINC000451500596    0.0700
     39 H39       -12.3515    3.3025   61.7959 H       1  ZINC000451500596    0.0800
     40 H40       -12.0828    2.8556   60.0818 H       1  ZINC000451500596    0.0700
     41 H41       -10.7928    1.0476   59.4752 H       1  ZINC000451500596    0.4000
     42 H42        -8.8688   -2.6415   59.5618 H       1  ZINC000451500596    0.0800
     43 H43       -10.2124   -3.1926   60.6179 H       1  ZINC000451500596    0.0800
     44 H44        -9.8297   -3.6675   57.6109 H       1  ZINC000451500596    0.0600
     45 H45       -10.2547   -4.8602   58.8767 H       1  ZINC000451500596    0.0900
     46 H46       -13.6035   -5.2920   57.4412 H       1  ZINC000451500596    0.1300
     47 H47       -14.2379   -5.6438   55.0895 H       1  ZINC000451500596    0.1300
     48 H48       -13.1816   -4.3062   53.3142 H       1  ZINC000451500596    0.1200
     49 H49       -11.4900   -2.6121   53.8843 H       1  ZINC000451500596    0.1200
     50 H50       -10.8530   -2.2476   56.2335 H       1  ZINC000451500596    0.1200
     51 H51       -12.8305   -2.1360   59.5315 H       1  ZINC000451500596    0.1000
     52 H52       -12.4464   -1.5758   57.8799 H       1  ZINC000451500596    0.0700
@<TRIPOS>BOND
     1     1     2    1
     2     1    29    1
     3     1    30    1
     4     1    31    1
     5     2     3    2
     6     2     4    2
     7     2     5   am
     8     5     6    1
     9     5    32    1
    10     6     7    1
    11     6    33    1
    12     6    34    1
    13     7     8    1
    14     7    12    1
    15     7     9    1
    16     9    10    1
    17     9    35    1
    18     9    36    1
    19    10    11    1
    20    10    37    1
    21    10    38    1
    22    11    12    1
    23    11    39    1
    24    11    40    1
    25    12    13    1
    26    12    14    1
    27    14    15   am
    28    14    41    1
    29    15    16    2
    30    15    17    1
    31    17    18    1
    32    17    28    1
    33    17    19    1
    34    19    20    1
    35    19    42    1
    36    19    43    1
    37    20    21    1
    38    20    44    1
    39    20    45    1
    40    21    22    1
    41    21    28    1
    42    22    27   ar
    43    22    23   ar
    44    23    24   ar
    45    23    46    1
    46    24    25   ar
    47    24    47    1
    48    25    26   ar
    49    25    48    1
    50    26    27   ar
    51    26    49    1
    52    27    50    1
    53    28    51    1
    54    28    52    1
@<TRIPOS>SUBSTRUCTURE
     1 ZINC000451500596        1 TEMP              0 ****  ****    0 ROOT


##########                                Name:    ZINC001067560454
##########                DOCK_Rotatable_Bonds:                   4
##########                         Heavy_Atoms:                  25
##########                    Molecular_Weight:             342.444
##########                DOCK_Rotatable_Bonds:                   4
##########                       Formal_Charge:          0.00999971
##########                     HBond_Acceptors:                   7
##########                        HBond_Donors:                   1
##########                         Heavy_Atoms:                  25
##########                          Grid_Score:          -32.419487
##########                     Grid_vdw_energy:          -31.087730
##########                      Grid_es_energy:           -1.331756
##########           Internal_energy_repulsive:           10.670362

@<TRIPOS>MOLECULE
ZINC001067560454
 51 54 1 0 0
SMALL
USER_CHARGES


@<TRIPOS>ATOM
      1 C1        -11.0581    0.4109   55.4332 C.3     1  ZINC001067560454   -0.1500
      2 C2        -10.5135    0.2630   54.0110 C.3     1  ZINC001067560454    0.1000
      3 H3        -11.2110    0.7156   53.3062 H       1  ZINC001067560454    0.0600
      4 C4         -9.1575    0.9650   53.9087 C.3     1  ZINC001067560454   -0.1200
      5 C5         -8.6073    0.7973   52.4897 C.3     1  ZINC001067560454    0.1400
      6 H6         -9.2818    1.2744   51.7786 H       1  ZINC001067560454    0.0900
      7 N7         -7.2836    1.4187   52.4013 N.am    1  ZINC001067560454   -0.7200
      8 C8         -6.8813    1.9863   51.2470 C.2     1  ZINC001067560454    0.5400
      9 O9         -7.6147    1.9816   50.2811 O.2     1  ZINC001067560454   -0.5300
     10 C10        -5.5203    2.6271   51.1566 C.3     1  ZINC001067560454   -0.1100
     11 C11        -5.4664    4.0037   51.8221 C.3     1  ZINC001067560454   -0.1300
     12 C12        -4.3712    1.6939   51.5733 C.3     1  ZINC001067560454   -0.1200
     13 C13        -4.3132    1.2389   50.1054 C.3     1  ZINC001067560454   -0.1400
     14 C14        -4.9212    2.6036   49.7405 C.3     1  ZINC001067560454   -0.1200
     15 C15        -8.4960   -0.6953   52.1670 C.3     1  ZINC001067560454   -0.1200
     16 C16        -9.8712   -1.3493   52.3198 C.3     1  ZINC001067560454    0.0600
     17 N17       -10.3534   -1.1619   53.6942 N.3     1  ZINC001067560454   -0.4900
     18 C18       -11.5345   -1.8521   53.9038 C.ar    1  ZINC001067560454    0.4400
     19 C19       -11.6708   -2.7296   54.9927 C.ar    1  ZINC001067560454   -0.0800
     20 N20       -10.8620   -3.1243   56.0052 N.2     1  ZINC001067560454   -0.4700
     21 C21       -11.4955   -3.9752   56.7591 C.2     1  ZINC001067560454    0.2700
     22 N22       -12.7534   -4.1796   56.2753 N.pl3   1  ZINC001067560454   -0.4800
     23 C23       -13.7691   -5.0664   56.8482 C.3     1  ZINC001067560454    0.0800
     24 C24       -12.8943   -3.4020   55.1538 C.ar    1  ZINC001067560454    0.2800
     25 N25       -13.8703   -3.1854   54.2783 N.ar    1  ZINC001067560454   -0.5200
     26 C26       -13.6974   -2.3535   53.2729 C.ar    1  ZINC001067560454    0.3300
     27 N27       -12.5681   -1.6962   53.0829 N.ar    1  ZINC001067560454   -0.5100
     28 H28       -10.3608   -0.0417   56.1382 H       1  ZINC001067560454    0.0700
     29 H29       -11.1774    1.4685   55.6684 H       1  ZINC001067560454    0.0700
     30 H30       -12.0241   -0.0887   55.5062 H       1  ZINC001067560454    0.0500
     31 H31        -9.2794    2.0256   54.1288 H       1  ZINC001067560454    0.0800
     32 H32        -8.4635    0.5219   54.6228 H       1  ZINC001067560454    0.0800
     33 H33        -6.6966    1.4214   53.1735 H       1  ZINC001067560454    0.4000
     34 H34        -5.8816    3.9376   52.8277 H       1  ZINC001067560454    0.0600
     35 H35        -4.4310    4.3400   51.8779 H       1  ZINC001067560454    0.0700
     36 H36        -6.0480    4.7142   51.2348 H       1  ZINC001067560454    0.0600
     37 H37        -3.4766    2.2228   51.9021 H       1  ZINC001067560454    0.0900
     38 H38        -4.6762    0.9067   52.2627 H       1  ZINC001067560454    0.0700
     39 H39        -3.2991    1.0987   49.7315 H       1  ZINC001067560454    0.0700
     40 H40        -4.9676    0.3960   49.8834 H       1  ZINC001067560454    0.0800
     41 H41        -5.6702    2.5506   48.9503 H       1  ZINC001067560454    0.0800
     42 H42        -4.1770    3.3811   49.5683 H       1  ZINC001067560454    0.0900
     43 H43        -8.1452   -0.8210   51.1427 H       1  ZINC001067560454    0.0800
     44 H44        -7.7916   -1.1647   52.8538 H       1  ZINC001067560454    0.0800
     45 H45       -10.5717   -0.8889   51.6230 H       1  ZINC001067560454    0.0700
     46 H46        -9.7926   -2.4149   52.1047 H       1  ZINC001067560454    0.0800
     47 H47       -11.0850   -4.4497   57.6381 H       1  ZINC001067560454    0.2300
     48 H48       -14.3692   -4.5129   57.5704 H       1  ZINC001067560454    0.0800
     49 H49       -14.4128   -5.4429   56.0533 H       1  ZINC001067560454    0.0900
     50 H50       -13.2807   -5.9034   57.3473 H       1  ZINC001067560454    0.0900
     51 H51       -14.5110   -2.2001   52.5793 H       1  ZINC001067560454    0.2100
@<TRIPOS>BOND
     1     1     2    1
     2     1    28    1
     3     1    29    1
     4     1    30    1
     5     2     3    1
     6     2    17    1
     7     2     4    1
     8     4     5    1
     9     4    31    1
    10     4    32    1
    11     5     6    1
    12     5     7    1
    13     5    15    1
    14     7     8   am
    15     7    33    1
    16     8     9    2
    17     8    10    1
    18    10    14    1
    19    10    11    1
    20    10    12    1
    21    11    34    1
    22    11    35    1
    23    11    36    1
    24    12    13    1
    25    12    37    1
    26    12    38    1
    27    13    14    1
    28    13    39    1
    29    13    40    1
    30    14    41    1
    31    14    42    1
    32    15    16    1
    33    15    43    1
    34    15    44    1
    35    16    17    1
    36    16    45    1
    37    16    46    1
    38    17    18    1
    39    18    27   ar
    40    18    19   ar
    41    19    24   ar
    42    19    20    1
    43    20    21    2
    44    21    22    1
    45    21    47    1
    46    22    23    1
    47    22    24    1
    48    23    48    1
    49    23    49    1
    50    23    50    1
    51    24    25   ar
    52    25    26   ar
    53    26    27   ar
    54    26    51    1
@<TRIPOS>SUBSTRUCTURE
     1 ZINC001067560454        1 TEMP              0 ****  ****    0 ROOT


##########                                Name:    ZINC000768148687
##########                DOCK_Rotatable_Bonds:                   8
##########                         Heavy_Atoms:                  25
##########                    Molecular_Weight:             371.307
##########                DOCK_Rotatable_Bonds:                   8
##########                       Formal_Charge:         2.98023e-08
##########                     HBond_Acceptors:                  11
##########                        HBond_Donors:                   0
##########                         Heavy_Atoms:                  25
##########                          Grid_Score:          -32.415211
##########                     Grid_vdw_energy:          -31.207235
##########                      Grid_es_energy:           -1.207977
##########           Internal_energy_repulsive:           15.967313

@<TRIPOS>MOLECULE
ZINC000768148687
 43 44 1 0 0
SMALL
USER_CHARGES


@<TRIPOS>ATOM
      1 C1         -9.4968   -2.8736   60.7647 C.3     1  ZINC000768148687   -0.1800
      2 C2        -10.1051   -1.7644   59.9042 C.3     1  ZINC000768148687    0.1100
      3 N3        -11.4478   -2.1614   59.4731 N.pl3   1  ZINC000768148687   -0.3100
      4 N4        -12.6476   -1.7899   60.0899 N.2     1  ZINC000768148687   -0.2000
      5 C5        -13.6420   -2.3253   59.4374 C.2     1  ZINC000768148687    0.0200
      6 C6        -15.1038   -2.1752   59.7716 C.3     1  ZINC000768148687    0.5500
      7 F7        -15.6955   -1.2734   58.8806 F       1  ZINC000768148687   -0.1600
      8 F8        -15.7364   -3.4184   59.6656 F       1  ZINC000768148687   -0.1600
      9 F9        -15.2364   -1.6943   61.0786 F       1  ZINC000768148687   -0.1500
     10 C10       -13.1081   -3.0711   58.3620 C.2     1  ZINC000768148687   -0.1800
     11 C11       -13.8734   -3.8408   57.3665 C.2     1  ZINC000768148687    0.5300
     12 O12       -14.0490   -5.0329   57.5242 O.2     1  ZINC000768148687   -0.4700
     13 O13       -14.3790   -3.2232   56.2806 O.3     1  ZINC000768148687   -0.3400
     14 C14       -14.5597   -4.0306   55.0874 C.3     1  ZINC000768148687    0.0200
     15 C15       -13.2030   -4.2647   54.4200 C.3     1  ZINC000768148687    0.0600
     16 N16       -12.9837   -3.2451   53.3854 N.3     1  ZINC000768148687   -0.5300
     17 C17       -11.6476   -3.3803   52.7873 C.3     1  ZINC000768148687    0.0100
     18 C18       -11.4839   -2.3396   51.6764 C.3     1  ZINC000768148687    0.0600
     19 O19       -11.7056   -1.0342   52.2167 O.3     1  ZINC000768148687   -0.3800
     20 C20       -12.9976   -0.8671   52.8068 C.3     1  ZINC000768148687    0.0600
     21 C21       -13.1766   -1.8929   53.9292 C.3     1  ZINC000768148687    0.0100
     22 C22       -11.7343   -2.9380   58.4165 C.2     1  ZINC000768148687    0.0600
     23 C23       -10.7397   -3.5588   57.4698 C.3     1  ZINC000768148687    0.3400
     24 F24       -11.0535   -4.9093   57.2833 F       1  ZINC000768148687   -0.1700
     25 F25       -10.7893   -2.8944   56.2397 F       1  ZINC000768148687   -0.1800
     26 H26        -8.4979   -2.5781   61.0854 H       1  ZINC000768148687    0.0900
     27 H27       -10.1249   -3.0403   61.6399 H       1  ZINC000768148687    0.0700
     28 H28        -9.4344   -3.7926   60.1819 H       1  ZINC000768148687    0.0700
     29 H29       -10.1676   -0.8453   60.4869 H       1  ZINC000768148687    0.1100
     30 H30        -9.4770   -1.5977   59.0291 H       1  ZINC000768148687    0.1200
     31 H31       -15.0005   -4.9892   55.3607 H       1  ZINC000768148687    0.0800
     32 H32       -15.2209   -3.5111   54.3939 H       1  ZINC000768148687    0.0800
     33 H33       -12.4135   -4.1983   55.1686 H       1  ZINC000768148687    0.1100
     34 H34       -13.1886   -5.2544   53.9636 H       1  ZINC000768148687    0.0900
     35 H35       -10.8883   -3.2186   53.5524 H       1  ZINC000768148687    0.0500
     36 H36       -11.5358   -4.3805   52.3684 H       1  ZINC000768148687    0.0900
     37 H37       -10.4748   -2.3982   51.2686 H       1  ZINC000768148687    0.1000
     38 H38       -12.2086   -2.5342   50.8858 H       1  ZINC000768148687    0.0600
     39 H39       -13.0832    0.1393   53.2166 H       1  ZINC000768148687    0.1000
     40 H40       -13.7663   -1.0189   52.0491 H       1  ZINC000768148687    0.0600
     41 H41       -14.1810   -1.8072   54.3438 H       1  ZINC000768148687    0.0800
     42 H42       -12.4417   -1.7073   54.7125 H       1  ZINC000768148687    0.0700
     43 H43        -9.7370   -3.4733   57.8887 H       1  ZINC000768148687    0.1500
@<TRIPOS>BOND
     1     1     2    1
     2     1    26    1
     3     1    27    1
     4     1    28    1
     5     2     3    1
     6     2    29    1
     7     2    30    1
     8     3    22    1
     9     3     4    1
    10     4     5    2
    11     5     6    1
    12     5    10    1
    13     6     7    1
    14     6     8    1
    15     6     9    1
    16    10    11    1
    17    10    22    2
    18    11    12    2
    19    11    13    1
    20    13    14    1
    21    14    15    1
    22    14    31    1
    23    14    32    1
    24    15    16    1
    25    15    33    1
    26    15    34    1
    27    16    21    1
    28    16    17    1
    29    17    18    1
    30    17    35    1
    31    17    36    1
    32    18    19    1
    33    18    37    1
    34    18    38    1
    35    19    20    1
    36    20    21    1
    37    20    39    1
    38    20    40    1
    39    21    41    1
    40    21    42    1
    41    22    23    1
    42    23    24    1
    43    23    25    1
    44    23    43    1
@<TRIPOS>SUBSTRUCTURE
     1 ZINC000768148687        1 TEMP              0 ****  ****    0 ROOT


##########                                Name:    ZINC000863208514
##########                DOCK_Rotatable_Bonds:                   6
##########                         Heavy_Atoms:                  19
##########                    Molecular_Weight:             368.657
##########                DOCK_Rotatable_Bonds:                   6
##########                       Formal_Charge:           0.0100005
##########                     HBond_Acceptors:                   7
##########                        HBond_Donors:                   2
##########                         Heavy_Atoms:                  19
##########                          Grid_Score:          -32.414303
##########                     Grid_vdw_energy:          -27.223989
##########                      Grid_es_energy:           -5.190314
##########           Internal_energy_repulsive:            8.552560

@<TRIPOS>MOLECULE
ZINC000863208514
 31 31 1 0 0
SMALL
USER_CHARGES


@<TRIPOS>ATOM
      1 C1         -8.0572    2.2906   64.5795 C.3     1  ZINC000863208514    0.0900
      2 N2         -7.9085    1.0575   65.3564 N.am    1  ZINC000863208514   -0.6100
      3 C3         -7.0350    1.0335   66.5323 C.3     1  ZINC000863208514    0.0700
      4 C4         -8.5751   -0.0548   64.9892 C.2     1  ZINC000863208514    0.5100
      5 O5         -8.4531   -1.0753   65.6332 O.2     1  ZINC000863208514   -0.5400
      6 C6         -9.4720   -0.0304   63.7785 C.3     1  ZINC000863208514    0.1100
      7 N7         -8.7737   -0.6348   62.6412 N.am    1  ZINC000863208514   -0.6600
      8 C8         -9.4681   -1.0246   61.5538 C.2     1  ZINC000863208514    0.5600
      9 S9        -11.1664   -0.8153   61.5024 S.2     1  ZINC000863208514   -0.6000
     10 N10        -8.8254   -1.5792   60.5070 N.am    1  ZINC000863208514   -0.6300
     11 C11        -9.5470   -1.9843   59.3770 C.ar    1  ZINC000863208514    0.1200
     12 C12       -10.0114   -1.0394   58.4733 C.ar    1  ZINC000863208514   -0.0300
     13 C13       -10.7232   -1.4418   57.3582 C.ar    1  ZINC000863208514   -0.0200
     14 Cl14      -11.3038   -0.2599   56.2269 Cl      1  ZINC000863208514   -0.0300
     15 C15       -10.9729   -2.7862   57.1426 C.ar    1  ZINC000863208514   -0.0600
     16 Br16      -11.9467   -3.3323   55.6164 Br      1  ZINC000863208514   -0.0100
     17 C17       -10.5109   -3.7313   58.0415 C.ar    1  ZINC000863208514   -0.1100
     18 C18        -9.7946   -3.3349   59.1557 C.ar    1  ZINC000863208514    0.1100
     19 F19        -9.3436   -4.2578   60.0333 F       1  ZINC000863208514   -0.1200
     20 H20        -7.4470    3.0764   65.0247 H       1  ZINC000863208514    0.0800
     21 H21        -7.7323    2.1154   63.5540 H       1  ZINC000863208514    0.0700
     22 H22        -9.1031    2.5976   64.5818 H       1  ZINC000863208514    0.0700
     23 H23        -7.6099    1.3060   67.4174 H       1  ZINC000863208514    0.0700
     24 H24        -6.6247    0.0318   66.6597 H       1  ZINC000863208514    0.0800
     25 H25        -6.2208    1.7449   66.3947 H       1  ZINC000863208514    0.0800
     26 H26       -10.3809   -0.5944   63.9882 H       1  ZINC000863208514    0.1200
     27 H27        -9.7314    1.0008   63.5391 H       1  ZINC000863208514    0.1200
     28 H28        -7.8116   -0.7546   62.6709 H       1  ZINC000863208514    0.4100
     29 H29        -7.8631   -1.6978   60.5362 H       1  ZINC000863208514    0.4200
     30 H30        -9.8173    0.0098   58.6408 H       1  ZINC000863208514    0.1800
     31 H31       -10.7072   -4.7796   57.8710 H       1  ZINC000863208514    0.1600
@<TRIPOS>BOND
     1     1     2    1
     2     1    20    1
     3     1    21    1
     4     1    22    1
     5     2     3    1
     6     2     4   am
     7     3    23    1
     8     3    24    1
     9     3    25    1
    10     4     5    2
    11     4     6    1
    12     6     7    1
    13     6    26    1
    14     6    27    1
    15     7     8   am
    16     7    28    1
    17     8     9    2
    18     8    10   am
    19    10    11    1
    20    10    29    1
    21    11    18   ar
    22    11    12   ar
    23    12    13   ar
    24    12    30    1
    25    13    14    1
    26    13    15   ar
    27    15    16    1
    28    15    17   ar
    29    17    18   ar
    30    17    31    1
    31    18    19    1
@<TRIPOS>SUBSTRUCTURE
     1 ZINC000863208514        1 TEMP              0 ****  ****    0 ROOT


##########                                Name:    ZINC001053433946
##########                DOCK_Rotatable_Bonds:                   6
##########                         Heavy_Atoms:                  24
##########                    Molecular_Weight:             337.419
##########                DOCK_Rotatable_Bonds:                   6
##########                       Formal_Charge:               -0.02
##########                     HBond_Acceptors:                   7
##########                        HBond_Donors:                   2
##########                         Heavy_Atoms:                  24
##########                          Grid_Score:          -32.399021
##########                     Grid_vdw_energy:          -32.150414
##########                      Grid_es_energy:           -0.248609
##########           Internal_energy_repulsive:           16.088243

@<TRIPOS>MOLECULE
ZINC001053433946
 51 54 1 0 0
SMALL
USER_CHARGES


@<TRIPOS>ATOM
      1 N1         -8.8310   -3.8110   59.5586 N.am    1  ZINC001053433946   -0.8300
      2 C2         -9.7439   -2.8286   59.6920 C.2     1  ZINC001053433946    0.5600
      3 O3        -10.4314   -2.7708   60.6895 O.2     1  ZINC001053433946   -0.5500
      4 C4         -9.9106   -1.8017   58.6017 C.3     1  ZINC001053433946   -0.1600
      5 H5         -9.0274   -1.2019   58.3817 H       1  ZINC001053433946    0.1400
      6 C6        -11.2756   -1.1226   58.4734 C.3     1  ZINC001053433946   -0.1300
      7 C7        -10.8333   -2.1551   57.4334 C.3     1  ZINC001053433946   -0.1700
      8 H8        -10.5575   -1.7875   56.4451 H       1  ZINC001053433946    0.1400
      9 C9        -11.5067   -3.5029   57.4610 C.2     1  ZINC001053433946    0.5400
     10 O10       -10.8902   -4.4815   57.8260 O.2     1  ZINC001053433946   -0.5200
     11 N11       -12.7942   -3.6209   57.0801 N.am    1  ZINC001053433946   -0.6100
     12 C12       -13.4745   -4.9253   57.0978 C.3     1  ZINC001053433946    0.0700
     13 C13       -14.1086   -5.1681   55.7242 C.3     1  ZINC001053433946    0.0500
     14 O14       -14.9499   -4.0603   55.3881 O.3     1  ZINC001053433946   -0.3400
     15 C15       -14.2656   -2.8122   55.3235 C.3     1  ZINC001053433946    0.0800
     16 C16       -13.3691   -2.6617   54.0871 C.3     1  ZINC001053433946   -0.0100
     17 N17       -14.5522   -2.0625   53.4291 N.3     1  ZINC001053433946   -0.4700
     18 C18       -14.1752   -0.8793   52.6443 C.3     1  ZINC001053433946    0.0200
     19 C19       -14.0380   -1.2673   51.1706 C.3     1  ZINC001053433946   -0.1200
     20 H20       -13.3412   -2.1002   51.0767 H       1  ZINC001053433946    0.0800
     21 C21       -15.4066   -1.6803   50.6205 C.3     1  ZINC001053433946   -0.1200
     22 C22       -15.2714   -1.9913   49.1267 C.3     1  ZINC001053433946   -0.1600
     23 C23       -14.7021   -0.7655   48.4077 C.3     1  ZINC001053433946    0.0600
     24 O24       -13.4438   -0.4162   48.9883 O.3     1  ZINC001053433946   -0.3800
     25 C25       -13.5147   -0.0700   50.3729 C.3     1  ZINC001053433946    0.0700
     26 C26       -15.1118   -1.6715   54.7428 C.3     1  ZINC001053433946    0.0200
     27 C27       -13.5667   -2.4466   56.6384 C.3     1  ZINC001053433946    0.1000
     28 H28        -8.7246   -4.4726   60.2600 H       1  ZINC001053433946    0.4000
     29 H29        -8.2831   -3.8588   58.7596 H       1  ZINC001053433946    0.4000
     30 H30       -12.0531   -1.4185   59.1777 H       1  ZINC001053433946    0.1100
     31 H31       -11.2904   -0.0761   58.1688 H       1  ZINC001053433946    0.1200
     32 H32       -12.7507   -5.7122   57.3105 H       1  ZINC001053433946    0.1000
     33 H33       -14.2504   -4.9225   57.8634 H       1  ZINC001053433946    0.0800
     34 H34       -13.3241   -5.2698   54.9743 H       1  ZINC001053433946    0.0600
     35 H35       -14.7037   -6.0808   55.7546 H       1  ZINC001053433946    0.1100
     36 H36       -12.5429   -1.9644   54.2254 H       1  ZINC001053433946    0.0800
     37 H37       -13.0579   -3.6113   53.6516 H       1  ZINC001053433946    0.0900
     38 H38       -14.9445   -0.1140   52.7483 H       1  ZINC001053433946    0.0500
     39 H39       -13.2242   -0.4902   53.0077 H       1  ZINC001053433946    0.0800
     40 H40       -15.7587   -2.5672   51.1471 H       1  ZINC001053433946    0.0700
     41 H41       -16.1169   -0.8654   50.7604 H       1  ZINC001053433946    0.0700
     42 H42       -14.5993   -2.8385   48.9904 H       1  ZINC001053433946    0.0700
     43 H43       -16.2513   -2.2327   48.7148 H       1  ZINC001053433946    0.0700
     44 H44       -14.5637   -0.9956   47.3513 H       1  ZINC001053433946    0.0900
     45 H45       -15.3943    0.0702   48.5102 H       1  ZINC001053433946    0.0500
     46 H46       -14.1913    0.7748   50.5022 H       1  ZINC001053433946    0.0500
     47 H47       -12.5217    0.2013   50.7311 H       1  ZINC001053433946    0.1000
     48 H48       -16.1862   -1.8335   54.8288 H       1  ZINC001053433946    0.1000
     49 H49       -14.8017   -0.6808   55.0754 H       1  ZINC001053433946    0.0900
     50 H50       -14.3109   -2.1836   57.3903 H       1  ZINC001053433946    0.0800
     51 H51       -12.8932   -1.6050   56.4760 H       1  ZINC001053433946    0.1000
@<TRIPOS>BOND
     1     1     2   am
     2     1    28    1
     3     1    29    1
     4     2     3    2
     5     2     4    1
     6     4     5    1
     7     4     7    1
     8     4     6    1
     9     6     7    1
    10     6    30    1
    11     6    31    1
    12     7     8    1
    13     7     9    1
    14     9    10    2
    15     9    11   am
    16    11    27    1
    17    11    12    1
    18    12    13    1
    19    12    32    1
    20    12    33    1
    21    13    14    1
    22    13    34    1
    23    13    35    1
    24    14    15    1
    25    15    26    1
    26    15    16    1
    27    15    27    1
    28    16    17    1
    29    16    36    1
    30    16    37    1
    31    17    18    1
    32    17    26    1
    33    18    19    1
    34    18    38    1
    35    18    39    1
    36    19    20    1
    37    19    25    1
    38    19    21    1
    39    21    22    1
    40    21    40    1
    41    21    41    1
    42    22    23    1
    43    22    42    1
    44    22    43    1
    45    23    24    1
    46    23    44    1
    47    23    45    1
    48    24    25    1
    49    25    46    1
    50    25    47    1
    51    26    48    1
    52    26    49    1
    53    27    50    1
    54    27    51    1
@<TRIPOS>SUBSTRUCTURE
     1 ZINC001053433946        1 TEMP              0 ****  ****    0 ROOT


##########                                Name:    ZINC000863246516
##########                DOCK_Rotatable_Bonds:                   5
##########                         Heavy_Atoms:                  25
##########                    Molecular_Weight:             356.489
##########                DOCK_Rotatable_Bonds:                   5
##########                       Formal_Charge:         -0.00999938
##########                     HBond_Acceptors:                   5
##########                        HBond_Donors:                   0
##########                         Heavy_Atoms:                  25
##########                          Grid_Score:          -32.398010
##########                     Grid_vdw_energy:          -31.359325
##########                      Grid_es_energy:           -1.038686
##########           Internal_energy_repulsive:           10.588120

@<TRIPOS>MOLECULE
ZINC000863246516
 49 52 1 0 0
SMALL
USER_CHARGES


@<TRIPOS>ATOM
      1 C1        -13.4169   -1.1576   50.5863 C.3     1  ZINC000863246516   -0.0600
      2 C2        -13.7296   -1.7430   51.9394 C.2     1  ZINC000863246516   -0.2000
      3 C3        -12.8861   -2.3335   52.7744 C.2     1  ZINC000863246516    0.0900
      4 C4        -11.4255   -2.4947   52.4402 C.3     1  ZINC000863246516   -0.1000
      5 N5        -13.4050   -2.7871   53.9504 N.am    1  ZINC000863246516   -0.5300
      6 C6        -12.5649   -3.4547   54.9478 C.3     1  ZINC000863246516    0.1200
      7 C7        -12.0184   -2.4174   55.9308 C.3     1  ZINC000863246516   -0.1500
      8 C8        -11.0524   -3.0825   56.8773 C.2     1  ZINC000863246516    0.5400
      9 O9        -10.7011   -4.2265   56.6805 O.2     1  ZINC000863246516   -0.5300
     10 N10       -10.5790   -2.4059   57.9424 N.am    1  ZINC000863246516   -0.6100
     11 C11        -9.6377   -2.9369   58.9349 C.3     1  ZINC000863246516    0.1100
     12 C12        -9.0344   -1.7232   59.6673 C.3     1  ZINC000863246516   -0.1300
     13 H13        -8.0298   -1.4402   59.3535 H       1  ZINC000863246516    0.1000
     14 C14        -9.2982   -1.7407   61.1822 C.3     1  ZINC000863246516   -0.1200
     15 C15       -10.7188   -1.2442   60.8683 C.3     1  ZINC000863246516   -0.0600
     16 H16       -11.4346   -2.0489   60.7002 H       1  ZINC000863246516    0.1000
     17 C17       -11.2227   -0.2067   61.8383 C.ar    1  ZINC000863246516   -0.0700
     18 C18       -10.4176    0.8612   62.1881 C.ar    1  ZINC000863246516   -0.1200
     19 C19       -10.8799    1.8128   63.0779 C.ar    1  ZINC000863246516   -0.1200
     20 C20       -12.1473    1.6968   63.6174 C.ar    1  ZINC000863246516   -0.1200
     21 C21       -12.9527    0.6294   63.2668 C.ar    1  ZINC000863246516   -0.1200
     22 C22       -12.4920   -0.3200   62.3737 C.ar    1  ZINC000863246516   -0.1200
     23 C23       -10.1396   -0.6435   59.5556 C.3     1  ZINC000863246516   -0.1100
     24 H24        -9.8164    0.3960   59.6111 H       1  ZINC000863246516    0.1200
     25 C25       -10.9192   -1.0217   58.2875 C.3     1  ZINC000863246516    0.1200
     26 C26       -14.7176   -2.5963   54.1570 C.2     1  ZINC000863246516    0.4800
     27 O27       -15.3624   -2.9271   55.1363 O.2     1  ZINC000863246516   -0.4700
     28 S28       -15.3017   -1.7820   52.7565 S.3     1  ZINC000863246516    0.0100
     29 H29       -14.3256   -0.7407   50.1520 H       1  ZINC000863246516    0.0700
     30 H30       -12.6715   -0.3698   50.6947 H       1  ZINC000863246516    0.0800
     31 H31       -13.0276   -1.9389   49.9336 H       1  ZINC000863246516    0.0800
     32 H32       -11.2277   -2.0640   51.4586 H       1  ZINC000863246516    0.0900
     33 H33       -10.8225   -1.9824   53.1899 H       1  ZINC000863246516    0.0800
     34 H34       -11.1698   -3.5542   52.4303 H       1  ZINC000863246516    0.0800
     35 H35       -13.1592   -4.1907   55.4893 H       1  ZINC000863246516    0.1000
     36 H36       -11.7351   -3.9543   54.4480 H       1  ZINC000863246516    0.1000
     37 H37       -11.5034   -1.6306   55.3797 H       1  ZINC000863246516    0.1000
     38 H38       -12.8426   -1.9844   56.4976 H       1  ZINC000863246516    0.1000
     39 H39       -10.1641   -3.5763   59.6437 H       1  ZINC000863246516    0.0700
     40 H40        -8.8495   -3.5014   58.4368 H       1  ZINC000863246516    0.0800
     41 H41        -9.2719   -2.7395   61.6178 H       1  ZINC000863246516    0.0800
     42 H42        -8.6975   -1.0205   61.7376 H       1  ZINC000863246516    0.0900
     43 H43        -9.4275    0.9518   61.7666 H       1  ZINC000863246516    0.1200
     44 H44       -10.2506    2.6468   63.3518 H       1  ZINC000863246516    0.1200
     45 H45       -12.5081    2.4399   64.3131 H       1  ZINC000863246516    0.1200
     46 H46       -13.9427    0.5385   63.6886 H       1  ZINC000863246516    0.1200
     47 H47       -13.1212   -1.1540   62.0999 H       1  ZINC000863246516    0.1200
     48 H48       -10.6501   -0.3473   57.4745 H       1  ZINC000863246516    0.0700
     49 H49       -11.9901   -0.9578   58.4803 H       1  ZINC000863246516    0.0700
@<TRIPOS>BOND
     1     1     2    1
     2     1    29    1
     3     1    30    1
     4     1    31    1
     5     2    28    1
     6     2     3    2
     7     3     4    1
     8     3     5    1
     9     4    32    1
    10     4    33    1
    11     4    34    1
    12     5     6    1
    13     5    26   am
    14     6     7    1
    15     6    35    1
    16     6    36    1
    17     7     8    1
    18     7    37    1
    19     7    38    1
    20     8     9    2
    21     8    10   am
    22    10    25    1
    23    10    11    1
    24    11    12    1
    25    11    39    1
    26    11    40    1
    27    12    13    1
    28    12    23    1
    29    12    14    1
    30    14    15    1
    31    14    41    1
    32    14    42    1
    33    15    16    1
    34    15    17    1
    35    15    23    1
    36    17    22   ar
    37    17    18   ar
    38    18    19   ar
    39    18    43    1
    40    19    20   ar
    41    19    44    1
    42    20    21   ar
    43    20    45    1
    44    21    22   ar
    45    21    46    1
    46    22    47    1
    47    23    24    1
    48    23    25    1
    49    25    48    1
    50    25    49    1
    51    26    27    2
    52    26    28    1
@<TRIPOS>SUBSTRUCTURE
     1 ZINC000863246516        1 TEMP              0 ****  ****    0 ROOT


##########                                Name:    ZINC000462219577
##########                DOCK_Rotatable_Bonds:                   8
##########                         Heavy_Atoms:                  31
##########                    Molecular_Weight:             418.539
##########                DOCK_Rotatable_Bonds:                   8
##########                       Formal_Charge:         -0.00999914
##########                     HBond_Acceptors:                   6
##########                        HBond_Donors:                   2
##########                         Heavy_Atoms:                  31
##########                          Grid_Score:          -32.374794
##########                     Grid_vdw_energy:          -28.865555
##########                      Grid_es_energy:           -3.509238
##########           Internal_energy_repulsive:           17.176794

@<TRIPOS>MOLECULE
ZINC000462219577
 61 64 1 0 0
SMALL
USER_CHARGES


@<TRIPOS>ATOM
      1 C1        -11.4341    3.1810   49.9694 C.3     1  ZINC000462219577   -0.0700
      2 C2        -10.1020    3.0256   50.6568 C.2     1  ZINC000462219577    0.0800
      3 N3         -8.9285    3.1951   50.1027 N.2     1  ZINC000462219577   -0.2900
      4 N4         -7.9472    2.9579   51.0738 N.pl3   1  ZINC000462219577   -0.3200
      5 C5         -6.5607    3.0362   50.8820 C.ar    1  ZINC000462219577    0.1500
      6 C6         -5.9350    2.1909   49.9757 C.ar    1  ZINC000462219577   -0.1100
      7 C7         -4.5688    2.2705   49.7889 C.ar    1  ZINC000462219577   -0.1000
      8 C8         -3.8243    3.1906   50.5040 C.ar    1  ZINC000462219577   -0.1200
      9 C9         -4.4446    4.0335   51.4078 C.ar    1  ZINC000462219577   -0.1000
     10 C10        -5.8114    3.9631   51.5939 C.ar    1  ZINC000462219577   -0.1300
     11 C11        -8.5742    2.6403   52.2291 C.2     1  ZINC000462219577    0.0900
     12 C12        -7.9082    2.3073   53.5392 C.3     1  ZINC000462219577   -0.0800
     13 C13        -8.7087    2.9224   54.6890 C.3     1  ZINC000462219577    0.1700
     14 H14        -9.7106    3.1734   54.3407 H       1  ZINC000462219577    0.1000
     15 C15        -8.0062    4.1906   55.1782 C.3     1  ZINC000462219577   -0.1600
     16 N16        -8.8010    1.9599   55.7895 N.am    1  ZINC000462219577   -0.7400
     17 C17       -10.0052    1.6304   56.2973 C.2     1  ZINC000462219577    0.7100
     18 O18       -11.0150    2.1309   55.8411 O.2     1  ZINC000462219577   -0.5800
     19 N19       -10.0900    0.7460   57.3109 N.am    1  ZINC000462219577   -0.7400
     20 C20       -11.3990    0.3866   57.8617 C.3     1  ZINC000462219577    0.1600
     21 H21       -12.1821    0.6819   57.1633 H       1  ZINC000462219577    0.1000
     22 C22       -11.4607   -1.1268   58.0905 C.3     1  ZINC000462219577   -0.1700
     23 C23       -10.4080   -1.5211   59.1299 C.3     1  ZINC000462219577    0.0700
     24 O24       -10.6399   -0.7964   60.3394 O.3     1  ZINC000462219577   -0.3700
     25 C25       -10.5480    0.6225   60.1961 C.3     1  ZINC000462219577    0.1400
     26 H26        -9.5564    0.8874   59.8292 H       1  ZINC000462219577    0.0600
     27 C27       -10.7812    1.2788   61.5326 C.ar    1  ZINC000462219577   -0.0900
     28 C28       -10.9221    0.5032   62.6682 C.ar    1  ZINC000462219577   -0.0900
     29 C29       -11.1359    1.1052   63.8941 C.ar    1  ZINC000462219577   -0.1200
     30 C30       -11.2086    2.4826   63.9844 C.ar    1  ZINC000462219577   -0.1200
     31 C31       -11.0668    3.2582   62.8489 C.ar    1  ZINC000462219577   -0.1200
     32 C32       -10.8486    2.6564   61.6237 C.ar    1  ZINC000462219577   -0.1100
     33 C33       -11.6072    1.1048   59.1986 C.3     1  ZINC000462219577   -0.1500
     34 C34        -9.9070    2.6812   51.9988 C.2     1  ZINC000462219577   -0.2600
     35 H35       -11.7722    4.2131   50.0614 H       1  ZINC000462219577    0.0800
     36 H36       -11.3308    2.9251   48.9148 H       1  ZINC000462219577    0.0700
     37 H37       -12.1627    2.5171   50.4346 H       1  ZINC000462219577    0.0800
     38 H38        -6.5159    1.4717   49.4174 H       1  ZINC000462219577    0.1300
     39 H39        -4.0815    1.6133   49.0840 H       1  ZINC000462219577    0.1300
     40 H40        -2.7561    3.2507   50.3566 H       1  ZINC000462219577    0.1300
     41 H41        -3.8604    4.7505   51.9653 H       1  ZINC000462219577    0.1300
     42 H42        -6.2953    4.6218   52.3000 H       1  ZINC000462219577    0.1300
     43 H43        -7.8688    1.2250   53.6622 H       1  ZINC000462219577    0.0900
     44 H44        -6.8956    2.7107   53.5450 H       1  ZINC000462219577    0.1100
     45 H45        -7.0043    3.9396   55.5265 H       1  ZINC000462219577    0.0600
     46 H46        -7.9375    4.9067   54.3594 H       1  ZINC000462219577    0.0700
     47 H47        -8.5764    4.6288   55.9973 H       1  ZINC000462219577    0.0700
     48 H48        -7.9955    1.5597   56.1527 H       1  ZINC000462219577    0.3900
     49 H49        -9.2843    0.3476   57.6756 H       1  ZINC000462219577    0.3900
     50 H50       -12.4514   -1.4002   58.4536 H       1  ZINC000462219577    0.0800
     51 H51       -11.2592   -1.6454   57.1532 H       1  ZINC000462219577    0.0800
     52 H52       -10.4760   -2.5907   59.3283 H       1  ZINC000462219577    0.1000
     53 H53        -9.4145   -1.2844   58.7490 H       1  ZINC000462219577    0.0500
     54 H54       -10.8653   -0.5729   62.5976 H       1  ZINC000462219577    0.1300
     55 H55       -11.2466    0.4993   64.7812 H       1  ZINC000462219577    0.1200
     56 H56       -11.3763    2.9529   64.9421 H       1  ZINC000462219577    0.1200
     57 H57       -11.1239    4.3344   62.9195 H       1  ZINC000462219577    0.1200
     58 H58       -10.7380    3.2624   60.7366 H       1  ZINC000462219577    0.1200
     59 H59       -11.5092    2.1808   59.0551 H       1  ZINC000462219577    0.0800
     60 H60       -12.6010    0.8767   59.5839 H       1  ZINC000462219577    0.0900
     61 H61       -10.6831    2.4769   52.7216 H       1  ZINC000462219577    0.1500
@<TRIPOS>BOND
     1     1     2    1
     2     1    35    1
     3     1    36    1
     4     1    37    1
     5     2    34    1
     6     2     3    2
     7     3     4    1
     8     4     5    1
     9     4    11    1
    10     5    10   ar
    11     5     6   ar
    12     6     7   ar
    13     6    38    1
    14     7     8   ar
    15     7    39    1
    16     8     9   ar
    17     8    40    1
    18     9    10   ar
    19     9    41    1
    20    10    42    1
    21    11    12    1
    22    11    34    2
    23    12    13    1
    24    12    43    1
    25    12    44    1
    26    13    14    1
    27    13    15    1
    28    13    16    1
    29    15    45    1
    30    15    46    1
    31    15    47    1
    32    16    17   am
    33    16    48    1
    34    17    18    2
    35    17    19   am
    36    19    20    1
    37    19    49    1
    38    20    21    1
    39    20    33    1
    40    20    22    1
    41    22    23    1
    42    22    50    1
    43    22    51    1
    44    23    24    1
    45    23    52    1
    46    23    53    1
    47    24    25    1
    48    25    26    1
    49    25    27    1
    50    25    33    1
    51    27    32   ar
    52    27    28   ar
    53    28    29   ar
    54    28    54    1
    55    29    30   ar
    56    29    55    1
    57    30    31   ar
    58    30    56    1
    59    31    32   ar
    60    31    57    1
    61    32    58    1
    62    33    59    1
    63    33    60    1
    64    34    61    1
@<TRIPOS>SUBSTRUCTURE
     1 ZINC000462219577        1 TEMP              0 ****  ****    0 ROOT


##########                                Name:    ZINC000893400114
##########                DOCK_Rotatable_Bonds:                   6
##########                         Heavy_Atoms:                  27
##########                    Molecular_Weight:             381.472
##########                DOCK_Rotatable_Bonds:                   6
##########                       Formal_Charge:           0.0300001
##########                     HBond_Acceptors:                   8
##########                        HBond_Donors:                   1
##########                         Heavy_Atoms:                  27
##########                          Grid_Score:          -32.334187
##########                     Grid_vdw_energy:          -33.760963
##########                      Grid_es_energy:            1.426775
##########           Internal_energy_repulsive:           80.810265

@<TRIPOS>MOLECULE
ZINC000893400114
 58 61 1 0 0
SMALL
USER_CHARGES


@<TRIPOS>ATOM
      1 O1        -10.7151    0.2266   56.4669 O.2     1  ZINC000893400114   -0.5600
      2 C2        -11.2538   -0.1271   55.4359 C.2     1  ZINC000893400114    0.7100
      3 N3        -11.2200    0.6704   54.3500 N.am    1  ZINC000893400114   -0.7300
      4 C4        -10.5392    1.9661   54.4135 C.3     1  ZINC000893400114    0.1400
      5 H5        -10.6951    2.4305   55.3873 H       1  ZINC000893400114    0.1200
      6 C6        -11.0394    2.8963   53.2841 C.3     1  ZINC000893400114   -0.1400
      7 C7         -9.9954    2.6352   52.1757 C.3     1  ZINC000893400114    0.1000
      8 N8         -8.7849    2.1891   52.8752 N.am    1  ZINC000893400114   -0.6200
      9 C9         -7.4464    2.1683   52.2799 C.3     1  ZINC000893400114    0.1600
     10 C10        -7.0747    0.7305   51.9047 C.3     1  ZINC000893400114   -0.1700
     11 C11        -5.7092    0.7288   51.2124 C.3     1  ZINC000893400114    0.0700
     12 O12        -5.7582    1.5765   50.0631 O.3     1  ZINC000893400114   -0.3800
     13 C13        -6.0549    2.9429   50.3581 C.3     1  ZINC000893400114    0.0700
     14 C14        -7.4343    3.0336   51.0160 C.3     1  ZINC000893400114   -0.1700
     15 C15        -9.0613    1.8018   54.1358 C.2     1  ZINC000893400114    0.5100
     16 O16        -8.2446    1.3831   54.9287 O.2     1  ZINC000893400114   -0.4900
     17 N17       -11.8802   -1.3191   55.3774 N.am    1  ZINC000893400114   -0.6300
     18 C18       -12.5342   -1.7711   54.1391 C.3     1  ZINC000893400114    0.0800
     19 C19       -12.0458   -3.1897   53.8244 C.3     1  ZINC000893400114    0.0500
     20 O20       -12.2272   -4.0163   54.9765 O.3     1  ZINC000893400114   -0.3800
     21 C21       -11.4707   -3.6044   56.1176 C.3     1  ZINC000893400114    0.0600
     22 C22       -11.9250   -2.2095   56.5480 C.3     1  ZINC000893400114    0.1400
     23 H23       -12.9456   -2.2567   56.9277 H       1  ZINC000893400114    0.0800
     24 C24       -10.9933   -1.6782   57.6392 C.3     1  ZINC000893400114   -0.1200
     25 C25       -10.8586   -2.7234   58.7484 C.3     1  ZINC000893400114    0.0700
     26 H26       -11.6429   -3.4735   58.6466 H       1  ZINC000893400114    0.0800
     27 C27       -10.9642   -2.0394   60.1283 C.3     1  ZINC000893400114   -0.1500
     28 C28        -9.8987   -2.8059   60.9585 C.3     1  ZINC000893400114   -0.1600
     29 C29        -8.8289   -3.0894   59.8739 C.3     1  ZINC000893400114    0.0500
     30 O30        -9.5733   -3.3508   58.6712 O.3     1  ZINC000893400114   -0.3800
     31 H31       -11.6464    0.3865   53.5262 H       1  ZINC000893400114    0.4000
     32 H32       -12.0379    2.6083   52.9551 H       1  ZINC000893400114    0.1000
     33 H33       -11.0201    3.9392   53.6003 H       1  ZINC000893400114    0.1000
     34 H34       -10.3493    1.8565   51.5001 H       1  ZINC000893400114    0.0700
     35 H35        -9.7950    3.5529   51.6226 H       1  ZINC000893400114    0.0800
     36 H36        -6.7229    2.5585   52.9957 H       1  ZINC000893400114    0.0900
     37 H37        -7.0269    0.1196   52.8062 H       1  ZINC000893400114    0.0800
     38 H38        -7.8266    0.3247   51.2280 H       1  ZINC000893400114    0.0900
     39 H39        -4.9509    1.0969   51.9035 H       1  ZINC000893400114    0.0500
     40 H40        -5.4589   -0.2865   50.9049 H       1  ZINC000893400114    0.1000
     41 H41        -5.3011    3.3399   51.0379 H       1  ZINC000893400114    0.0500
     42 H42        -6.0536    3.5226   49.4351 H       1  ZINC000893400114    0.1000
     43 H43        -8.1935    2.6742   50.3212 H       1  ZINC000893400114    0.0900
     44 H44        -7.6437    4.0697   51.2818 H       1  ZINC000893400114    0.0700
     45 H45       -13.6155   -1.7771   54.2762 H       1  ZINC000893400114    0.0800
     46 H46       -12.2713   -1.1021   53.3198 H       1  ZINC000893400114    0.0800
     47 H47       -12.6191   -3.5956   52.9910 H       1  ZINC000893400114    0.1100
     48 H48       -10.9887   -3.1604   53.5601 H       1  ZINC000893400114    0.0500
     49 H49       -11.6305   -4.3087   56.9339 H       1  ZINC000893400114    0.1300
     50 H50       -10.4116   -3.5767   55.8616 H       1  ZINC000893400114    0.0500
     51 H51       -10.0119   -1.4739   57.2113 H       1  ZINC000893400114    0.0800
     52 H52       -11.4071   -0.7591   58.0544 H       1  ZINC000893400114    0.1100
     53 H53       -10.7127   -0.9812   60.0569 H       1  ZINC000893400114    0.0800
     54 H54       -11.9586   -2.1751   60.5536 H       1  ZINC000893400114    0.0800
     55 H55        -9.4951   -2.1795   61.7539 H       1  ZINC000893400114    0.0800
     56 H56       -10.3064   -3.7336   61.3601 H       1  ZINC000893400114    0.0800
     57 H57        -8.1859   -2.2195   59.7402 H       1  ZINC000893400114    0.0600
     58 H58        -8.2349   -3.9615   60.1473 H       1  ZINC000893400114    0.0800
@<TRIPOS>BOND
     1     1     2    2
     2     2     3   am
     3     2    17   am
     4     3     4    1
     5     3    31    1
     6     4     5    1
     7     4    15    1
     8     4     6    1
     9     6     7    1
    10     6    32    1
    11     6    33    1
    12     7     8    1
    13     7    34    1
    14     7    35    1
    15     8     9    1
    16     8    15   am
    17     9    14    1
    18     9    10    1
    19     9    36    1
    20    10    11    1
    21    10    37    1
    22    10    38    1
    23    11    12    1
    24    11    39    1
    25    11    40    1
    26    12    13    1
    27    13    14    1
    28    13    41    1
    29    13    42    1
    30    14    43    1
    31    14    44    1
    32    15    16    2
    33    17    22    1
    34    17    18    1
    35    18    19    1
    36    18    45    1
    37    18    46    1
    38    19    20    1
    39    19    47    1
    40    19    48    1
    41    20    21    1
    42    21    22    1
    43    21    49    1
    44    21    50    1
    45    22    23    1
    46    22    24    1
    47    24    25    1
    48    24    51    1
    49    24    52    1
    50    25    26    1
    51    25    30    1
    52    25    27    1
    53    27    28    1
    54    27    53    1
    55    27    54    1
    56    28    29    1
    57    28    55    1
    58    28    56    1
    59    29    30    1
    60    29    57    1
    61    29    58    1
@<TRIPOS>SUBSTRUCTURE
     1 ZINC000893400114        1 TEMP              0 ****  ****    0 ROOT


##########                                Name:    ZINC001248546333
##########                DOCK_Rotatable_Bonds:                   6
##########                         Heavy_Atoms:                  27
##########                    Molecular_Weight:             378.397
##########                DOCK_Rotatable_Bonds:                   6
##########                       Formal_Charge:         3.94881e-07
##########                     HBond_Acceptors:                   8
##########                        HBond_Donors:                   1
##########                         Heavy_Atoms:                  27
##########                          Grid_Score:          -32.332397
##########                     Grid_vdw_energy:          -29.674744
##########                      Grid_es_energy:           -2.657652
##########           Internal_energy_repulsive:           11.963248

@<TRIPOS>MOLECULE
ZINC001248546333
 48 50 1 0 0
SMALL
USER_CHARGES


@<TRIPOS>ATOM
      1 C1         -0.0104    3.5188   63.0058 C.3     1  ZINC001248546333   -0.1200
      2 C2         -0.4789    2.6630   61.8572 C.ar    1  ZINC001248546333   -0.0800
      3 C3         -0.5920    1.2938   62.0182 C.ar    1  ZINC001248546333   -0.1200
      4 C4         -1.0215    0.5010   60.9686 C.ar    1  ZINC001248546333   -0.1100
      5 C5         -1.3401    1.0725   59.7541 C.ar    1  ZINC001248546333   -0.1100
      6 C6         -1.2286    2.4532   59.5854 C.ar    1  ZINC001248546333   -0.0600
      7 C7         -1.5685    3.0722   58.2867 C.2     1  ZINC001248546333   -0.0600
      8 C8         -0.9334    4.1675   57.9465 C.2     1  ZINC001248546333   -0.1700
      9 C9         -1.1911    4.9103   56.6649 C.3     1  ZINC001248546333    0.1500
     10 N10        -2.0330    4.0829   55.7889 N.am    1  ZINC001248546333   -0.6300
     11 C11        -1.7736    3.9689   54.4712 C.2     1  ZINC001248546333    0.7200
     12 O12        -0.8273    4.5571   53.9848 O.2     1  ZINC001248546333   -0.5800
     13 N13        -2.5633    3.2028   53.6927 N.am    1  ZINC001248546333   -0.7500
     14 C14        -2.2814    3.0789   52.2605 C.3     1  ZINC001248546333    0.2000
     15 C15        -3.3134    2.1863   51.6208 C.2     1  ZINC001248546333    0.0700
     16 C16        -4.5702    1.9686   52.0725 C.2     1  ZINC001248546333   -0.2000
     17 C17        -5.1961    1.0801   51.1920 C.2     1  ZINC001248546333   -0.0200
     18 C18        -6.6068    0.5637   51.3123 C.3     1  ZINC001248546333    0.5600
     19 F19        -6.9789    0.5331   52.6605 F       1  ZINC001248546333   -0.1700
     20 F20        -7.4734    1.4066   50.6083 F       1  ZINC001248546333   -0.1700
     21 F21        -6.6776   -0.7279   50.7796 F       1  ZINC001248546333   -0.1600
     22 N22        -4.3457    0.7753   50.2457 N.2     1  ZINC001248546333   -0.2200
     23 N23        -3.1516    1.4654   50.4915 N.pl3   1  ZINC001248546333   -0.3400
     24 C24        -1.9384    1.4076   49.6722 C.3     1  ZINC001248546333    0.0900
     25 C25        -3.1718    3.3837   56.4089 C.3     1  ZINC001248546333    0.1300
     26 C26        -2.6123    2.4017   57.4440 C.3     1  ZINC001248546333   -0.1000
     27 C27        -0.7997    3.2475   60.6491 C.ar    1  ZINC001248546333   -0.1100
     28 H28        -0.8699    3.8379   63.5953 H       1  ZINC001248546333    0.0700
     29 H29         0.6681    2.9428   63.6350 H       1  ZINC001248546333    0.0700
     30 H30         0.5094    4.3948   62.6177 H       1  ZINC001248546333    0.0700
     31 H31        -0.3437    0.8416   62.9670 H       1  ZINC001248546333    0.1200
     32 H32        -1.1069   -0.5675   61.1004 H       1  ZINC001248546333    0.1200
     33 H33        -1.6748    0.4525   58.9355 H       1  ZINC001248546333    0.1200
     34 H34        -0.1863    4.5569   58.6222 H       1  ZINC001248546333    0.1200
     35 H35        -1.7034    5.8471   56.8836 H       1  ZINC001248546333    0.0800
     36 H36        -0.2436    5.1193   56.1682 H       1  ZINC001248546333    0.0800
     37 H37        -3.3183    2.7334   54.0808 H       1  ZINC001248546333    0.4000
     38 H38        -2.3161    4.0648   51.7968 H       1  ZINC001248546333    0.1000
     39 H39        -1.2906    2.6467   52.1213 H       1  ZINC001248546333    0.0900
     40 H40        -5.0118    2.4037   52.9568 H       1  ZINC001248546333    0.1700
     41 H41        -1.9790    2.1833   48.9075 H       1  ZINC001248546333    0.0900
     42 H42        -1.0650    1.5662   50.3048 H       1  ZINC001248546333    0.1000
     43 H43        -1.8686    0.4301   49.1950 H       1  ZINC001248546333    0.1000
     44 H44        -3.8263    4.1059   56.8968 H       1  ZINC001248546333    0.0700
     45 H45        -3.7278    2.8372   55.6471 H       1  ZINC001248546333    0.1000
     46 H46        -2.1740    1.5465   56.9295 H       1  ZINC001248546333    0.0800
     47 H47        -3.4216    2.0560   58.0871 H       1  ZINC001248546333    0.0900
     48 H48        -0.7113    4.3168   60.5248 H       1  ZINC001248546333    0.1200
@<TRIPOS>BOND
     1     1     2    1
     2     1    28    1
     3     1    29    1
     4     1    30    1
     5     2    27   ar
     6     2     3   ar
     7     3     4   ar
     8     3    31    1
     9     4     5   ar
    10     4    32    1
    11     5     6   ar
    12     5    33    1
    13     6     7    1
    14     6    27   ar
    15     7    26    1
    16     7     8    2
    17     8     9    1
    18     8    34    1
    19     9    10    1
    20     9    35    1
    21     9    36    1
    22    10    11   am
    23    10    25    1
    24    11    12    2
    25    11    13   am
    26    13    14    1
    27    13    37    1
    28    14    15    1
    29    14    38    1
    30    14    39    1
    31    15    23    1
    32    15    16    2
    33    16    17    1
    34    16    40    1
    35    17    18    1
    36    17    22    2
    37    18    19    1
    38    18    20    1
    39    18    21    1
    40    22    23    1
    41    23    24    1
    42    24    41    1
    43    24    42    1
    44    24    43    1
    45    25    26    1
    46    25    44    1
    47    25    45    1
    48    26    46    1
    49    26    47    1
    50    27    48    1
@<TRIPOS>SUBSTRUCTURE
     1 ZINC001248546333        1 TEMP              0 ****  ****    0 ROOT


##########                                Name:    ZINC000790735374
##########                DOCK_Rotatable_Bonds:                   5
##########                         Heavy_Atoms:                  25
##########                    Molecular_Weight:             353.445
##########                DOCK_Rotatable_Bonds:                   5
##########                       Formal_Charge:                   0
##########                     HBond_Acceptors:                   6
##########                        HBond_Donors:                   1
##########                         Heavy_Atoms:                  25
##########                          Grid_Score:          -32.326267
##########                     Grid_vdw_energy:          -32.758633
##########                      Grid_es_energy:            0.432365
##########           Internal_energy_repulsive:            9.083761

@<TRIPOS>MOLECULE
ZINC000790735374
 44 47 1 0 0
SMALL
USER_CHARGES


@<TRIPOS>ATOM
      1 O1        -10.7653    0.1118   52.7383 O.2     1  ZINC000790735374   -0.5100
      2 C2        -10.2813    0.3873   53.8157 C.2     1  ZINC000790735374    0.5000
      3 N3         -8.9421    0.4332   53.9609 N.am    1  ZINC000790735374   -0.7200
      4 C4         -8.0711    0.1442   52.8190 C.3     1  ZINC000790735374    0.1400
      5 C5         -7.8038    1.4348   52.0419 C.3     1  ZINC000790735374   -0.0300
      6 H6         -8.5776    1.5669   51.2856 H       1  ZINC000790735374    0.1100
      7 S7         -7.8372    2.8413   53.1858 S.3     1  ZINC000790735374   -0.2400
      8 C8         -7.0939    4.1422   52.1516 C.3     1  ZINC000790735374   -0.0800
      9 C9         -5.6607    3.7312   51.8487 C.3     1  ZINC000790735374   -0.0800
     10 C10        -5.5419    2.3517   51.2659 C.ar    1  ZINC000790735374   -0.0700
     11 C11        -4.3554    2.1200   50.5618 C.ar    1  ZINC000790735374   -0.1200
     12 C12        -4.0895    0.9017   49.9824 C.ar    1  ZINC000790735374   -0.1100
     13 C13        -5.0110   -0.1225   50.0972 C.ar    1  ZINC000790735374   -0.1200
     14 C14        -6.1829    0.1006   50.7834 C.ar    1  ZINC000790735374   -0.1100
     15 C15        -6.4575    1.3414   51.3675 C.ar    1  ZINC000790735374   -0.0800
     16 C16       -11.1772    0.6845   54.9904 C.3     1  ZINC000790735374    0.0300
     17 H17       -12.0404    1.2737   54.6809 H       1  ZINC000790735374    0.1500
     18 C18       -11.6207   -0.6208   55.6930 C.3     1  ZINC000790735374   -0.1400
     19 C19       -10.5861   -0.7717   56.7920 C.2     1  ZINC000790735374    0.1200
     20 C20       -10.3258   -1.9974   57.5727 C.ar    1  ZINC000790735374   -0.1000
     21 C21       -11.0365   -3.1743   57.3083 C.ar    1  ZINC000790735374   -0.0400
     22 C22       -10.7542   -4.2958   58.0685 C.ar    1  ZINC000790735374   -0.1700
     23 C23        -9.7884   -4.2191   59.0555 C.ar    1  ZINC000790735374    0.1200
     24 N24        -9.1339   -3.0963   59.2827 N.ar    1  ZINC000790735374   -0.4800
     25 C25        -9.3625   -2.0043   58.5834 C.ar    1  ZINC000790735374    0.1400
     26 N26        -9.9723    0.3558   56.9273 N.2     1  ZINC000790735374   -0.2700
     27 O27       -10.4473    1.3507   56.0406 O.3     1  ZINC000790735374   -0.1600
     28 H28        -8.5550    0.6574   54.8216 H       1  ZINC000790735374    0.4100
     29 H29        -7.1271   -0.2666   53.1768 H       1  ZINC000790735374    0.0800
     30 H30        -8.5576   -0.5795   52.1650 H       1  ZINC000790735374    0.0900
     31 H31        -7.6544    4.2403   51.2218 H       1  ZINC000790735374    0.0900
     32 H32        -7.1004    5.0904   52.6893 H       1  ZINC000790735374    0.1100
     33 H33        -5.2345    4.4455   51.1441 H       1  ZINC000790735374    0.0900
     34 H34        -5.0839    3.7704   52.7727 H       1  ZINC000790735374    0.0900
     35 H35        -3.6316    2.9165   50.4710 H       1  ZINC000790735374    0.1200
     36 H36        -3.1679    0.7461   49.4414 H       1  ZINC000790735374    0.1300
     37 H37        -4.8135   -1.0870   49.6530 H       1  ZINC000790735374    0.1300
     38 H38        -6.9031   -0.6990   50.8744 H       1  ZINC000790735374    0.1300
     39 H39       -12.6201   -0.5131   56.1146 H       1  ZINC000790735374    0.1200
     40 H40       -11.5792   -1.4645   55.0040 H       1  ZINC000790735374    0.1100
     41 H41       -11.7861   -3.2060   56.5315 H       1  ZINC000790735374    0.1500
     42 H42       -11.2828   -5.2211   57.8930 H       1  ZINC000790735374    0.1500
     43 H43        -9.5665   -5.0929   59.6503 H       1  ZINC000790735374    0.1600
     44 H44        -8.8060   -1.1041   58.7987 H       1  ZINC000790735374    0.1600
@<TRIPOS>BOND
     1     1     2    2
     2     2     3   am
     3     2    16    1
     4     3     4    1
     5     3    28    1
     6     4     5    1
     7     4    29    1
     8     4    30    1
     9     5     6    1
    10     5    15    1
    11     5     7    1
    12     7     8    1
    13     8     9    1
    14     8    31    1
    15     8    32    1
    16     9    10    1
    17     9    33    1
    18     9    34    1
    19    10    15   ar
    20    10    11   ar
    21    11    12   ar
    22    11    35    1
    23    12    13   ar
    24    12    36    1
    25    13    14   ar
    26    13    37    1
    27    14    15   ar
    28    14    38    1
    29    16    17    1
    30    16    27    1
    31    16    18    1
    32    18    19    1
    33    18    39    1
    34    18    40    1
    35    19    20    1
    36    19    26    2
    37    20    25   ar
    38    20    21   ar
    39    21    22   ar
    40    21    41    1
    41    22    23   ar
    42    22    42    1
    43    23    24   ar
    44    23    43    1
    45    24    25   ar
    46    25    44    1
    47    26    27    1
@<TRIPOS>SUBSTRUCTURE
     1 ZINC000790735374        1 TEMP              0 ****  ****    0 ROOT


##########                                Name:    ZINC001436455587
##########                DOCK_Rotatable_Bonds:                   9
##########                         Heavy_Atoms:                  21
##########                    Molecular_Weight:             378.693
##########                DOCK_Rotatable_Bonds:                   9
##########                       Formal_Charge:          -0.0200001
##########                     HBond_Acceptors:                   5
##########                        HBond_Donors:                   1
##########                         Heavy_Atoms:                  21
##########                          Grid_Score:          -32.287277
##########                     Grid_vdw_energy:          -32.094036
##########                      Grid_es_energy:           -0.193239
##########           Internal_energy_repulsive:           10.421869

@<TRIPOS>MOLECULE
ZINC001436455587
 42 42 1 0 0
SMALL
USER_CHARGES


@<TRIPOS>ATOM
      1 C1        -14.0360   -0.0669   48.6580 C.3     1  ZINC001436455587   -0.1500
      2 C2        -13.6274   -0.9117   49.8664 C.3     1  ZINC001436455587   -0.1300
      3 C3        -13.2172    0.0093   51.0173 C.3     1  ZINC001436455587   -0.1400
      4 C4        -12.7427   -0.8350   52.2017 C.3     1  ZINC001436455587    0.0800
      5 H5        -13.5802   -1.4104   52.5964 H       1  ZINC001436455587    0.0700
      6 C6        -12.1946    0.0835   53.2958 C.3     1  ZINC001436455587    0.1200
      7 N7        -10.8468    0.5269   52.9312 N.am    1  ZINC001436455587   -0.7200
      8 C8         -9.7985    0.2136   53.7183 C.2     1  ZINC001436455587    0.5200
      9 O9         -9.9708   -0.4365   54.7274 O.2     1  ZINC001436455587   -0.5100
     10 C10        -8.4121    0.6713   53.3442 C.3     1  ZINC001436455587    0.0600
     11 H11        -7.7331   -0.1814   53.3538 H       1  ZINC001436455587    0.1000
     12 C12        -7.9313    1.7174   54.3518 C.3     1  ZINC001436455587   -0.1800
     13 O13        -8.4369    1.2458   52.0362 O.3     1  ZINC001436455587   -0.2700
     14 C14        -7.2446    1.3752   51.3962 C.ar    1  ZINC001436455587    0.1600
     15 C15        -6.5465    0.2466   50.9940 C.ar    1  ZINC001436455587   -0.2000
     16 C16        -5.3348    0.3800   50.3432 C.ar    1  ZINC001436455587   -0.0500
     17 C17        -4.8175    1.6384   50.0929 C.ar    1  ZINC001436455587   -0.0700
     18 Cl18       -3.2948    1.8028   49.2755 Cl      1  ZINC001436455587   -0.0600
     19 C19        -5.5124    2.7664   50.4928 C.ar    1  ZINC001436455587   -0.0400
     20 C20        -6.7270    2.6375   51.1392 C.ar    1  ZINC001436455587   -0.1200
     21 Br21       -7.6765    4.1788   51.6857 Br      1  ZINC001436455587   -0.0100
     22 O22       -11.7137   -1.7271   51.7691 O.3     1  ZINC001436455587   -0.3800
     23 C23       -11.5775   -2.8950   52.5813 C.3     1  ZINC001436455587    0.0200
     24 H24       -14.8762    0.5725   48.9290 H       1  ZINC001436455587    0.0500
     25 H25       -13.1945    0.5519   48.3460 H       1  ZINC001436455587    0.0600
     26 H26       -14.3283   -0.7229   47.8381 H       1  ZINC001436455587    0.0600
     27 H27       -14.4689   -1.5303   50.1785 H       1  ZINC001436455587    0.0600
     28 H28       -12.7872   -1.5509   49.5955 H       1  ZINC001436455587    0.0700
     29 H29       -12.4083    0.6622   50.6895 H       1  ZINC001436455587    0.0800
     30 H30       -14.0717    0.6138   51.3211 H       1  ZINC001436455587    0.0800
     31 H31       -12.8462    0.9510   53.4020 H       1  ZINC001436455587    0.0800
     32 H32       -12.1556   -0.4593   54.2402 H       1  ZINC001436455587    0.0800
     33 H33       -10.7088    1.0460   52.1235 H       1  ZINC001436455587    0.4000
     34 H34        -6.9286    2.0485   54.0812 H       1  ZINC001436455587    0.0800
     35 H35        -8.6103    2.5701   54.3422 H       1  ZINC001436455587    0.0800
     36 H36        -7.9123    1.2792   55.3496 H       1  ZINC001436455587    0.0800
     37 H37        -6.9493   -0.7361   51.1897 H       1  ZINC001436455587    0.1500
     38 H38        -4.7910   -0.4989   50.0299 H       1  ZINC001436455587    0.1400
     39 H39        -5.1071    3.7479   50.2962 H       1  ZINC001436455587    0.1500
     40 H40       -12.4810   -3.4996   52.5025 H       1  ZINC001436455587    0.0500
     41 H41       -10.7205   -3.4763   52.2410 H       1  ZINC001436455587    0.0900
     42 H42       -11.4272   -2.5998   53.6197 H       1  ZINC001436455587    0.0400
@<TRIPOS>BOND
     1     1     2    1
     2     1    24    1
     3     1    25    1
     4     1    26    1
     5     2     3    1
     6     2    27    1
     7     2    28    1
     8     3     4    1
     9     3    29    1
    10     3    30    1
    11     4     5    1
    12     4     6    1
    13     4    22    1
    14     6     7    1
    15     6    31    1
    16     6    32    1
    17     7     8   am
    18     7    33    1
    19     8     9    2
    20     8    10    1
    21    10    11    1
    22    10    12    1
    23    10    13    1
    24    12    34    1
    25    12    35    1
    26    12    36    1
    27    13    14    1
    28    14    20   ar
    29    14    15   ar
    30    15    16   ar
    31    15    37    1
    32    16    17   ar
    33    16    38    1
    34    17    18    1
    35    17    19   ar
    36    19    20   ar
    37    19    39    1
    38    20    21    1
    39    22    23    1
    40    23    40    1
    41    23    41    1
    42    23    42    1
@<TRIPOS>SUBSTRUCTURE
     1 ZINC001436455587        1 TEMP              0 ****  ****    0 ROOT


##########                                Name:    ZINC000194290865
##########                DOCK_Rotatable_Bonds:                   7
##########                         Heavy_Atoms:                  28
##########                    Molecular_Weight:             387.479
##########                DOCK_Rotatable_Bonds:                   7
##########                       Formal_Charge:          -0.0400003
##########                     HBond_Acceptors:                   7
##########                        HBond_Donors:                   0
##########                         Heavy_Atoms:                  28
##########                          Grid_Score:          -32.281921
##########                     Grid_vdw_energy:          -32.027832
##########                      Grid_es_energy:           -0.254089
##########           Internal_energy_repulsive:           40.618885

@<TRIPOS>MOLECULE
ZINC000194290865
 57 59 1 0 0
SMALL
USER_CHARGES


@<TRIPOS>ATOM
      1 C1         -6.9896   -0.8728   50.9193 C.3     1  ZINC000194290865   -0.1500
      2 C2         -6.8147    0.3979   51.7532 C.3     1  ZINC000194290865    0.0600
      3 O3         -5.5083    0.9740   51.4893 O.3     1  ZINC000194290865   -0.3600
      4 C4         -5.2236    2.1398   52.0908 C.2     1  ZINC000194290865    0.4700
      5 O5         -5.9447    2.5610   52.9641 O.2     1  ZINC000194290865   -0.4900
      6 C6         -4.0046    2.9233   51.6770 C.3     1  ZINC000194290865   -0.0600
      7 C7         -3.3733    2.3026   50.4292 C.3     1  ZINC000194290865   -0.0700
      8 C8         -4.3192    2.4756   49.2391 C.3     1  ZINC000194290865   -0.1700
      9 C9         -2.0444    2.9991   50.1298 C.3     1  ZINC000194290865   -0.1600
     10 C10        -4.3793    4.4002   51.4141 C.3     1  ZINC000194290865   -0.1200
     11 C11        -4.0083    5.0924   52.7497 C.3     1  ZINC000194290865    0.0900
     12 N12        -2.7725    4.3894   53.1649 N.am    1  ZINC000194290865   -0.6100
     13 C13        -1.6803    4.9357   53.7351 C.2     1  ZINC000194290865    0.5800
     14 O14        -1.6444    6.1298   53.9586 O.2     1  ZINC000194290865   -0.5000
     15 C15        -0.5247    4.0814   54.0891 C.ar    1  ZINC000194290865    0.0100
     16 C16        -0.5140    3.3288   55.2792 C.ar    1  ZINC000194290865   -0.2200
     17 C17         0.6036    2.5303   55.5776 C.ar    1  ZINC000194290865    0.3000
     18 N18         1.6318    2.4910   54.7440 N.ar    1  ZINC000194290865   -0.4700
     19 C19         1.6498    3.1833   53.6250 C.ar    1  ZINC000194290865    0.2100
     20 C20         2.8535    3.0902   52.7231 C.3     1  ZINC000194290865   -0.1100
     21 C21         0.5874    3.9907   53.2522 C.ar    1  ZINC000194290865   -0.1800
     22 O22         0.3506    1.9289   56.7575 O.3     1  ZINC000194290865   -0.0800
     23 N23        -0.9206    2.3302   57.2266 N.2     1  ZINC000194290865   -0.2600
     24 C24        -1.4594    3.1550   56.3813 C.2     1  ZINC000194290865    0.1600
     25 C25        -2.8093    3.8123   56.5118 C.3     1  ZINC000194290865   -0.0400
     26 C26        -3.8049    2.8177   57.1120 C.3     1  ZINC000194290865   -0.1500
     27 C27        -2.6953    5.0342   57.4254 C.3     1  ZINC000194290865   -0.1400
     28 C28        -2.9821    2.9690   52.8277 C.3     1  ZINC000194290865    0.1200
     29 H29        -6.9082   -0.6267   49.8606 H       1  ZINC000194290865    0.0700
     30 H30        -6.2149   -1.5918   51.1859 H       1  ZINC000194290865    0.0700
     31 H31        -7.9703   -1.3054   51.1175 H       1  ZINC000194290865    0.0800
     32 H32        -7.5895    1.1168   51.4867 H       1  ZINC000194290865    0.0700
     33 H33        -6.8962    0.1518   52.8119 H       1  ZINC000194290865    0.0700
     34 H34        -3.1963    1.2410   50.6014 H       1  ZINC000194290865    0.0900
     35 H35        -5.2659    1.9794   49.4524 H       1  ZINC000194290865    0.0500
     36 H36        -4.4961    3.5373   49.0670 H       1  ZINC000194290865    0.0800
     37 H37        -3.8694    2.0334   48.3502 H       1  ZINC000194290865    0.0600
     38 H38        -1.3705    2.8760   50.9776 H       1  ZINC000194290865    0.0500
     39 H39        -1.5945    2.5569   49.2409 H       1  ZINC000194290865    0.0600
     40 H40        -2.2213    4.0609   49.9577 H       1  ZINC000194290865    0.0800
     41 H41        -3.7907    4.8073   50.5919 H       1  ZINC000194290865    0.0900
     42 H42        -5.4459    4.4977   51.2120 H       1  ZINC000194290865    0.0900
     43 H43        -3.8129    6.1531   52.5919 H       1  ZINC000194290865    0.0900
     44 H44        -4.7976    4.9516   53.4882 H       1  ZINC000194290865    0.0900
     45 H45         2.7113    2.2781   52.0101 H       1  ZINC000194290865    0.0900
     46 H46         2.9771    4.0295   52.1840 H       1  ZINC000194290865    0.0900
     47 H47         3.7427    2.8957   53.3228 H       1  ZINC000194290865    0.0900
     48 H48         0.6236    4.5499   52.3290 H       1  ZINC000194290865    0.1600
     49 H49        -3.1574    4.1257   55.5275 H       1  ZINC000194290865    0.1100
     50 H50        -3.4568    2.5043   58.0962 H       1  ZINC000194290865    0.0700
     51 H51        -4.7812    3.2931   57.2064 H       1  ZINC000194290865    0.0700
     52 H52        -3.8861    1.9472   56.4611 H       1  ZINC000194290865    0.0600
     53 H53        -1.9860    5.7428   56.9977 H       1  ZINC000194290865    0.0600
     54 H54        -3.6716    5.5096   57.5197 H       1  ZINC000194290865    0.0700
     55 H55        -2.3472    4.7209   58.4096 H       1  ZINC000194290865    0.0600
     56 H56        -3.3738    2.4357   53.6938 H       1  ZINC000194290865    0.0800
     57 H57        -2.0417    2.5210   52.5066 H       1  ZINC000194290865    0.1000
@<TRIPOS>BOND
     1     1     2    1
     2     1    29    1
     3     1    30    1
     4     1    31    1
     5     2     3    1
     6     2    32    1
     7     2    33    1
     8     3     4    1
     9     4     5    2
    10     4     6    1
    11     6    28    1
    12     6     7    1
    13     6    10    1
    14     7     8    1
    15     7     9    1
    16     7    34    1
    17     8    35    1
    18     8    36    1
    19     8    37    1
    20     9    38    1
    21     9    39    1
    22     9    40    1
    23    10    11    1
    24    10    41    1
    25    10    42    1
    26    11    12    1
    27    11    43    1
    28    11    44    1
    29    12    13   am
    30    12    28    1
    31    13    14    2
    32    13    15    1
    33    15    21   ar
    34    15    16   ar
    35    16    24    1
    36    16    17   ar
    37    17    18   ar
    38    17    22    1
    39    18    19   ar
    40    19    20    1
    41    19    21   ar
    42    20    45    1
    43    20    46    1
    44    20    47    1
    45    21    48    1
    46    22    23    1
    47    23    24    2
    48    24    25    1
    49    25    26    1
    50    25    27    1
    51    25    49    1
    52    26    50    1
    53    26    51    1
    54    26    52    1
    55    27    53    1
    56    27    54    1
    57    27    55    1
    58    28    56    1
    59    28    57    1
@<TRIPOS>SUBSTRUCTURE
     1 ZINC000194290865        1 TEMP              0 ****  ****    0 ROOT


##########                                Name:    ZINC000493443319
##########                DOCK_Rotatable_Bonds:                   6
##########                         Heavy_Atoms:                  25
##########                    Molecular_Weight:             348.399
##########                DOCK_Rotatable_Bonds:                   6
##########                       Formal_Charge:        -3.27826e-07
##########                     HBond_Acceptors:                   7
##########                        HBond_Donors:                   0
##########                         Heavy_Atoms:                  25
##########                          Grid_Score:          -32.249310
##########                     Grid_vdw_energy:          -31.286825
##########                      Grid_es_energy:           -0.962484
##########           Internal_energy_repulsive:           51.319481

@<TRIPOS>MOLECULE
ZINC000493443319
 49 51 1 0 0
SMALL
USER_CHARGES


@<TRIPOS>ATOM
      1 C1        -11.4653   -3.3640   52.6600 C.3     1  <0>        -0.1500
      2 C2        -10.7394   -2.1043   53.1364 C.3     1  <0>         0.0500
      3 O3         -9.4287   -2.0662   52.5686 O.3     1  <0>        -0.3200
      4 C4         -8.7481   -0.8929   52.6646 C.ar    1  <0>         0.1000
      5 C5         -9.2583    0.1440   53.4318 C.ar    1  <0>        -0.1700
      6 C6         -8.5671    1.3359   53.5294 C.ar    1  <0>        -0.1100
      7 C7         -7.3625    1.4957   52.8606 C.ar    1  <0>         0.0800
      8 O8         -6.6821    2.6692   52.9564 O.3     1  <0>        -0.3000
      9 C9         -6.7216    3.5365   51.8213 C.3     1  <0>         0.1000
     10 C10        -8.1281    3.5246   51.2190 C.3     1  <0>        -0.1800
     11 C11        -6.3642    4.9598   52.2543 C.3     1  <0>        -0.1500
     12 C12        -5.7300    3.0609   50.7910 C.2     1  <0>         0.5100
     13 O13        -6.0759    2.9170   49.6375 O.2     1  <0>        -0.5200
     14 N14        -4.4588    2.7955   51.1514 N.am    1  <0>        -0.6000
     15 C15        -3.4902    2.3320   50.1500 C.3     1  <0>         0.0700
     16 C16        -2.2831    3.2836   50.1412 C.3     1  <0>         0.1300
     17 N17        -1.8997    3.5194   51.5401 N.am    1  <0>        -0.6300
     18 C18        -0.7020    3.3666   52.1074 C.2     1  <0>         0.6500
     19 O19         0.3123    3.1541   51.4730 O.2     1  <0>        -0.5200
     20 O20        -0.7239    3.4694   53.4431 O.3     1  <0>        -0.3200
     21 C21        -2.0710    3.8154   53.8820 C.3     1  <0>         0.0500
     22 C22        -2.8635    3.9578   52.5725 C.3     1  <0>         0.0800
     23 H23        -3.1870    4.9859   52.4097 H       1  <0>         0.1100
     24 C24        -4.0348    2.9751   52.5485 C.3     1  <0>         0.1000
     25 C25        -6.8516    0.4584   52.0947 C.ar    1  <0>        -0.1800
     26 C26        -7.5411   -0.7349   52.0002 C.ar    1  <0>        -0.1100
     27 H27       -12.4651   -3.3931   53.0930 H       1  <0>         0.0800
     28 H28       -11.5406   -3.3507   51.5726 H       1  <0>         0.0700
     29 H29       -10.9073   -4.2458   52.9747 H       1  <0>         0.0700
     30 H30       -11.2975   -1.2224   52.8217 H       1  <0>         0.0600
     31 H31       -10.6642   -2.1177   54.2238 H       1  <0>         0.0600
     32 H32       -10.1963    0.0195   53.9525 H       1  <0>         0.1400
     33 H33        -8.9647    2.1435   54.1261 H       1  <0>         0.1400
     34 H34        -8.8254    3.9904   51.9154 H       1  <0>         0.0800
     35 H35        -8.1264    4.0796   50.2809 H       1  <0>         0.0900
     36 H36        -8.4345    2.4954   51.0318 H       1  <0>         0.0800
     37 H37        -5.4005    4.9534   52.7633 H       1  <0>         0.0800
     38 H38        -6.3072    5.6031   51.3763 H       1  <0>         0.0900
     39 H39        -7.1305    5.3367   52.9317 H       1  <0>         0.0900
     40 H40        -3.1587    1.3248   50.4024 H       1  <0>         0.0800
     41 H41        -3.9579    2.3271   49.1654 H       1  <0>         0.1300
     42 H42        -1.4540    2.8254   49.6019 H       1  <0>         0.1100
     43 H43        -2.5579    4.2265   49.6684 H       1  <0>         0.0800
     44 H44        -2.4890    3.0184   54.4969 H       1  <0>         0.1100
     45 H45        -2.0644    4.7581   54.4292 H       1  <0>         0.1100
     46 H46        -4.8619    3.3737   53.1358 H       1  <0>         0.1100
     47 H47        -3.7192    2.0160   52.9594 H       1  <0>         0.0800
     48 H48        -5.9134    0.5826   51.5742 H       1  <0>         0.1600
     49 H49        -7.1432   -1.5426   51.4038 H       1  <0>         0.1300
@<TRIPOS>BOND
     1     1     2    1
     2     1    27    1
     3     1    28    1
     4     1    29    1
     5     2     3    1
     6     2    30    1
     7     2    31    1
     8     3     4    1
     9     4    26   ar
    10     4     5   ar
    11     5     6   ar
    12     5    32    1
    13     6     7   ar
    14     6    33    1
    15     7     8    1
    16     7    25   ar
    17     8     9    1
    18     9    10    1
    19     9    11    1
    20     9    12    1
    21    10    34    1
    22    10    35    1
    23    10    36    1
    24    11    37    1
    25    11    38    1
    26    11    39    1
    27    12    13    2
    28    12    14   am
    29    14    24    1
    30    14    15    1
    31    15    16    1
    32    15    40    1
    33    15    41    1
    34    16    17    1
    35    16    42    1
    36    16    43    1
    37    17    22    1
    38    17    18   am
    39    18    19    2
    40    18    20    1
    41    20    21    1
    42    21    22    1
    43    21    44    1
    44    21    45    1
    45    22    23    1
    46    22    24    1
    47    24    46    1
    48    24    47    1
    49    25    26   ar
    50    25    48    1
    51    26    49    1
@<TRIPOS>SUBSTRUCTURE
     1 <0>         1 TEMP              0 ****  ****    0 ROOT


##########                                Name:    ZINC000302023461
##########                DOCK_Rotatable_Bonds:                   3
##########                         Heavy_Atoms:                  25
##########                    Molecular_Weight:             356.362
##########                DOCK_Rotatable_Bonds:                   3
##########                       Formal_Charge:        -2.08616e-07
##########                     HBond_Acceptors:                   9
##########                        HBond_Donors:                   1
##########                         Heavy_Atoms:                  25
##########                          Grid_Score:          -32.217007
##########                     Grid_vdw_energy:          -32.193867
##########                      Grid_es_energy:           -0.023139
##########           Internal_energy_repulsive:           19.833149

@<TRIPOS>MOLECULE
ZINC000302023461
 37 40 1 0 0
SMALL
USER_CHARGES


@<TRIPOS>ATOM
      1 O1        -11.4974   -2.8430   57.3924 O.2     1  ZINC000302023461   -0.1600
      2 N2        -11.4621   -1.8602   56.6736 N.pl3   1  ZINC000302023461    0.0200
      3 O3        -11.3174   -0.7537   57.1616 O.2     1  ZINC000302023461   -0.1300
      4 C4        -11.5890   -2.0114   55.2065 C.ar    1  ZINC000302023461    0.0000
      5 C5        -11.7531   -3.2652   54.6524 C.ar    1  ZINC000302023461   -0.0600
      6 C6        -11.8718   -3.4074   53.2817 C.ar    1  ZINC000302023461   -0.0900
      7 C7        -11.8270   -2.2950   52.4614 C.ar    1  ZINC000302023461   -0.0800
      8 C8        -11.6631   -1.0376   53.0086 C.ar    1  ZINC000302023461   -0.0500
      9 C9        -11.5488   -0.8905   54.3855 C.ar    1  ZINC000302023461   -0.1100
     10 S10       -11.3402    0.7117   55.0882 S.3     1  ZINC000302023461    0.1900
     11 C11        -9.6686    1.1035   54.6925 C.2     1  ZINC000302023461    0.2100
     12 N12        -8.7857    1.6054   55.5250 N.2     1  ZINC000302023461   -0.3200
     13 N13        -7.5891    1.7629   54.8070 N.pl3   1  ZINC000302023461   -0.4700
     14 C14        -7.8388    1.3317   53.5500 C.2     1  ZINC000302023461    0.3500
     15 C15        -6.8722    1.3054   52.4311 C.ar    1  ZINC000302023461   -0.0400
     16 C16        -7.0110    0.3665   51.4086 C.ar    1  ZINC000302023461   -0.0900
     17 C17        -6.1072    0.3430   50.3674 C.ar    1  ZINC000302023461   -0.1100
     18 C18        -5.0574    1.2510   50.3316 C.ar    1  ZINC000302023461    0.0800
     19 O19        -4.1724    1.2040   49.2989 O.3     1  ZINC000302023461   -0.3000
     20 C20        -3.3533    2.3611   49.0994 C.3     1  ZINC000302023461    0.0200
     21 C21        -2.7926    2.7940   50.4606 C.3     1  ZINC000302023461    0.0200
     22 O22        -3.8945    3.0927   51.3246 O.3     1  ZINC000302023461   -0.3000
     23 C23        -4.9154    2.1924   51.3472 C.ar    1  ZINC000302023461    0.0500
     24 C24        -5.8219    2.2234   52.3922 C.ar    1  ZINC000302023461   -0.0500
     25 N25        -9.0944    0.9327   53.4998 N.2     1  ZINC000302023461   -0.5000
     26 H26       -11.7885   -4.1362   55.2901 H       1  ZINC000302023461    0.1600
     27 H27       -11.9994   -4.3895   52.8509 H       1  ZINC000302023461    0.1500
     28 H28       -11.9200   -2.4097   51.3915 H       1  ZINC000302023461    0.1500
     29 H29       -11.6276   -0.1693   52.3674 H       1  ZINC000302023461    0.1600
     30 H30        -6.7499    2.1121   55.1457 H       1  ZINC000302023461    0.4400
     31 H31        -7.8258   -0.3421   51.4328 H       1  ZINC000302023461    0.1300
     32 H32        -6.2162   -0.3848   49.5768 H       1  ZINC000302023461    0.1500
     33 H33        -2.5328    2.1185   48.4241 H       1  ZINC000302023461    0.1300
     34 H34        -3.9527    3.1670   48.6756 H       1  ZINC000302023461    0.0800
     35 H35        -2.1992    1.9856   50.8878 H       1  ZINC000302023461    0.0800
     36 H36        -2.1714    3.6811   50.3371 H       1  ZINC000302023461    0.1300
     37 H37        -5.7142    2.9550   53.1793 H       1  ZINC000302023461    0.1600
@<TRIPOS>BOND
     1     1     2    2
     2     2     3    2
     3     2     4    1
     4     4     9   ar
     5     4     5   ar
     6     5     6   ar
     7     5    26    1
     8     6     7   ar
     9     6    27    1
    10     7     8   ar
    11     7    28    1
    12     8     9   ar
    13     8    29    1
    14     9    10    1
    15    10    11    1
    16    11    25    1
    17    11    12    2
    18    12    13    1
    19    13    14    1
    20    13    30    1
    21    14    15    1
    22    14    25    2
    23    15    24   ar
    24    15    16   ar
    25    16    17   ar
    26    16    31    1
    27    17    18   ar
    28    17    32    1
    29    18    23   ar
    30    18    19    1
    31    19    20    1
    32    20    21    1
    33    20    33    1
    34    20    34    1
    35    21    22    1
    36    21    35    1
    37    21    36    1
    38    22    23    1
    39    23    24   ar
    40    24    37    1
@<TRIPOS>SUBSTRUCTURE
     1 ZINC000302023461        1 TEMP              0 ****  ****    0 ROOT


##########                                Name:    ZINC000945148121
##########                DOCK_Rotatable_Bonds:                   6
##########                         Heavy_Atoms:                  24
##########                    Molecular_Weight:             332.446
##########                DOCK_Rotatable_Bonds:                   6
##########                       Formal_Charge:           0.0100009
##########                     HBond_Acceptors:                   6
##########                        HBond_Donors:                   2
##########                         Heavy_Atoms:                  24
##########                          Grid_Score:          -32.211342
##########                     Grid_vdw_energy:          -31.164223
##########                      Grid_es_energy:           -1.047121
##########           Internal_energy_repulsive:           17.988417

@<TRIPOS>MOLECULE
ZINC000945148121
 52 54 1 0 0
SMALL
USER_CHARGES


@<TRIPOS>ATOM
      1 O1         -9.1217    3.9435   53.2444 O.2     1  ZINC000945148121   -0.5100
      2 C2         -8.5884    3.1132   52.5393 C.2     1  ZINC000945148121    0.5200
      3 C3         -7.5402    3.5334   51.5414 C.3     1  ZINC000945148121   -0.0500
      4 C4         -6.6353    2.3660   51.2418 C.2     1  ZINC000945148121    0.0100
      5 C5         -5.5271    2.0272   51.9277 C.2     1  ZINC000945148121   -0.0500
      6 N6         -5.0125    0.9122   51.3232 N.pl3   1  ZINC000945148121   -0.5700
      7 C7         -5.8248    0.6081   50.2882 C.2     1  ZINC000945148121    0.1800
      8 N8         -6.7960    1.4790   50.2486 N.2     1  ZINC000945148121   -0.4700
      9 N9         -8.9291    1.8141   52.6521 N.am    1  ZINC000945148121   -0.7300
     10 C10        -9.9480    1.4057   53.6222 C.3     1  ZINC000945148121    0.1500
     11 C11       -10.6698    0.1577   53.1086 C.3     1  ZINC000945148121   -0.1400
     12 C12       -11.7575   -0.2461   54.1089 C.3     1  ZINC000945148121    0.1100
     13 N13       -11.1450   -0.4060   55.4348 N.am    1  ZINC000945148121   -0.6100
     14 C14       -11.3073   -1.5472   56.1332 C.2     1  ZINC000945148121    0.5200
     15 O15       -11.9630   -2.4550   55.6675 O.2     1  ZINC000945148121   -0.5400
     16 C16       -10.6741   -1.6952   57.4926 C.3     1  ZINC000945148121   -0.1000
     17 C17       -11.4466   -0.8882   58.5006 C.3     1  ZINC000945148121   -0.1200
     18 C18       -10.5427   -0.2944   59.5979 C.3     1  ZINC000945148121   -0.1200
     19 C19        -9.4723   -1.2863   60.0918 C.3     1  ZINC000945148121   -0.1200
     20 C20       -10.0137   -2.6798   60.2623 C.3     1  ZINC000945148121   -0.1200
     21 C21        -9.7409   -3.4732   58.9680 C.3     1  ZINC000945148121   -0.1200
     22 C22       -10.7078   -3.1765   57.9214 C.3     1  ZINC000945148121   -0.1000
     23 C23       -10.3515    0.7017   55.9847 C.3     1  ZINC000945148121    0.1100
     24 C24        -9.2796    1.0948   54.9633 C.3     1  ZINC000945148121   -0.1400
     25 H25        -8.0248    3.8626   50.6221 H       1  ZINC000945148121    0.1000
     26 H26        -6.9518    4.3522   51.9553 H       1  ZINC000945148121    0.1000
     27 H27        -5.1221    2.5376   52.7891 H       1  ZINC000945148121    0.1800
     28 H28        -4.2136    0.4304   51.5888 H       1  ZINC000945148121    0.4200
     29 H29        -5.6946   -0.2209   49.6083 H       1  ZINC000945148121    0.2100
     30 H30        -8.4997    1.1496   52.0908 H       1  ZINC000945148121    0.4000
     31 H31       -10.6684    2.2131   53.7539 H       1  ZINC000945148121    0.0900
     32 H32       -11.1259    0.3730   52.1424 H       1  ZINC000945148121    0.0800
     33 H33        -9.9545   -0.6575   53.0003 H       1  ZINC000945148121    0.0700
     34 H34       -12.5218    0.5300   54.1507 H       1  ZINC000945148121    0.0700
     35 H35       -12.2078   -1.1889   53.7984 H       1  ZINC000945148121    0.1000
     36 H36        -9.6415   -1.3482   57.4553 H       1  ZINC000945148121    0.1000
     37 H37       -11.9563   -0.0743   57.9849 H       1  ZINC000945148121    0.0700
     38 H38       -12.1938   -1.5295   58.9681 H       1  ZINC000945148121    0.0700
     39 H39       -10.0454    0.5914   59.2026 H       1  ZINC000945148121    0.0600
     40 H40       -11.1641    0.0018   60.4431 H       1  ZINC000945148121    0.0700
     41 H41        -8.6551   -1.3111   59.3709 H       1  ZINC000945148121    0.0600
     42 H42        -9.0846   -0.9389   61.0495 H       1  ZINC000945148121    0.0600
     43 H43        -9.5158   -3.1659   61.1014 H       1  ZINC000945148121    0.0600
     44 H44       -11.0872   -2.6358   60.4455 H       1  ZINC000945148121    0.0700
     45 H45        -8.7426   -3.2265   58.6066 H       1  ZINC000945148121    0.0600
     46 H46        -9.7796   -4.5391   59.1925 H       1  ZINC000945148121    0.0600
     47 H47       -11.7068   -3.4159   58.2855 H       1  ZINC000945148121    0.0700
     48 H48       -10.4914   -3.8000   57.0539 H       1  ZINC000945148121    0.0700
     49 H49       -11.0012    1.5550   56.1794 H       1  ZINC000945148121    0.0700
     50 H50        -9.8741    0.3842   56.9116 H       1  ZINC000945148121    0.1000
     51 H51        -8.5774    0.2708   54.8375 H       1  ZINC000945148121    0.0700
     52 H52        -8.7462    1.9772   55.3171 H       1  ZINC000945148121    0.0800
@<TRIPOS>BOND
     1     1     2    2
     2     2     3    1
     3     2     9   am
     4     3     4    1
     5     3    25    1
     6     3    26    1
     7     4     8    1
     8     4     5    2
     9     5     6    1
    10     5    27    1
    11     6     7    1
    12     6    28    1
    13     7     8    2
    14     7    29    1
    15     9    10    1
    16     9    30    1
    17    10    24    1
    18    10    11    1
    19    10    31    1
    20    11    12    1
    21    11    32    1
    22    11    33    1
    23    12    13    1
    24    12    34    1
    25    12    35    1
    26    13    14   am
    27    13    23    1
    28    14    15    2
    29    14    16    1
    30    16    22    1
    31    16    17    1
    32    16    36    1
    33    17    18    1
    34    17    37    1
    35    17    38    1
    36    18    19    1
    37    18    39    1
    38    18    40    1
    39    19    20    1
    40    19    41    1
    41    19    42    1
    42    20    21    1
    43    20    43    1
    44    20    44    1
    45    21    22    1
    46    21    45    1
    47    21    46    1
    48    22    47    1
    49    22    48    1
    50    23    24    1
    51    23    49    1
    52    23    50    1
    53    24    51    1
    54    24    52    1
@<TRIPOS>SUBSTRUCTURE
     1 ZINC000945148121        1 TEMP              0 ****  ****    0 ROOT


##########                                Name:    ZINC000369046711
##########                DOCK_Rotatable_Bonds:                   8
##########                         Heavy_Atoms:                  26
##########                    Molecular_Weight:             367.467
##########                DOCK_Rotatable_Bonds:                   8
##########                       Formal_Charge:        -7.63685e-07
##########                     HBond_Acceptors:                   8
##########                        HBond_Donors:                   1
##########                         Heavy_Atoms:                  26
##########                          Grid_Score:          -32.196789
##########                     Grid_vdw_energy:          -32.064426
##########                      Grid_es_energy:           -0.132362
##########           Internal_energy_repulsive:           14.569682

@<TRIPOS>MOLECULE
ZINC000369046711
 56 58 1 0 0
SMALL
USER_CHARGES


@<TRIPOS>ATOM
      1 C1         -7.9878    1.3618   64.1605 C.3     1  ZINC000369046711   -0.1800
      2 C2         -9.2993    1.0853   64.8982 C.3     1  ZINC000369046711    0.1400
      3 C3         -9.0159    0.8992   66.3902 C.3     1  ZINC000369046711   -0.1800
      4 C4        -10.2526    2.2660   64.7035 C.3     1  ZINC000369046711   -0.1400
      5 O5         -9.9084   -0.1212   64.3671 O.3     1  ZINC000369046711   -0.3700
      6 C6         -9.6744   -0.4048   63.0719 C.2     1  ZINC000369046711    0.6500
      7 O7         -8.8459   -1.2421   62.7734 O.2     1  ZINC000369046711   -0.5700
      8 N8        -10.3591    0.2399   62.1066 N.am    1  ZINC000369046711   -0.7100
      9 C9        -10.1058   -0.0701   60.6973 C.3     1  ZINC000369046711    0.1800
     10 H10        -9.0627   -0.3640   60.5803 H       1  ZINC000369046711    0.0900
     11 C11       -10.3687    1.1793   59.8573 C.3     1  ZINC000369046711   -0.1300
     12 C12       -11.8429    1.5653   60.0261 C.3     1  ZINC000369046711   -0.1200
     13 C13       -12.7036    0.4448   59.4498 C.3     1  ZINC000369046711   -0.1200
     14 C14       -12.4853   -0.8635   60.2127 C.3     1  ZINC000369046711   -0.1000
     15 H15       -12.9586   -0.8487   61.1944 H       1  ZINC000369046711    0.0900
     16 C16       -13.0387   -1.9978   59.3073 C.3     1  ZINC000369046711    0.0400
     17 N17       -11.9129   -2.4768   58.4818 N.3     1  ZINC000369046711   -0.5200
     18 C18       -12.2103   -2.3316   57.0505 C.3     1  ZINC000369046711    0.1200
     19 C19       -12.7928   -3.6184   56.5254 C.2     1  ZINC000369046711    0.2900
     20 N20       -13.1216   -4.6620   57.2427 N.2     1  ZINC000369046711   -0.5400
     21 C21       -13.6051   -5.6195   56.4523 C.2     1  ZINC000369046711    0.2000
     22 N22       -13.5906   -5.1966   55.2156 N.2     1  ZINC000369046711   -0.3200
     23 N23       -13.0705   -3.8922   55.2389 N.pl3   1  ZINC000369046711   -0.3700
     24 C24       -12.8629   -3.0090   54.0887 C.3     1  ZINC000369046711    0.1000
     25 C25       -11.6792   -3.5167   53.2630 C.3     1  ZINC000369046711    0.0500
     26 F26       -11.4728   -2.6661   52.1716 F       1  ZINC000369046711   -0.2000
     27 C27       -10.6977   -1.7128   58.8521 C.3     1  ZINC000369046711    0.0500
     28 C28       -10.9897   -1.2176   60.2799 C.3     1  ZINC000369046711   -0.1000
     29 H29       -10.8486   -2.0406   60.9806 H       1  ZINC000369046711    0.0900
     30 H30        -7.3087    0.5206   64.2992 H       1  ZINC000369046711    0.0900
     31 H31        -8.1897    1.4943   63.0976 H       1  ZINC000369046711    0.0600
     32 H32        -7.5307    2.2674   64.5592 H       1  ZINC000369046711    0.0700
     33 H33        -8.5588    1.8048   66.7888 H       1  ZINC000369046711    0.0700
     34 H34        -9.9504    0.7022   66.9157 H       1  ZINC000369046711    0.0600
     35 H35        -8.3368    0.0580   66.5288 H       1  ZINC000369046711    0.0900
     36 H36       -10.4546    2.3985   63.6406 H       1  ZINC000369046711    0.0700
     37 H37       -11.1871    2.0690   65.2291 H       1  ZINC000369046711    0.0700
     38 H38        -9.7955    3.1716   65.1023 H       1  ZINC000369046711    0.0800
     39 H39       -11.0196    0.9091   62.3449 H       1  ZINC000369046711    0.4000
     40 H40        -9.7328    1.9949   60.2017 H       1  ZINC000369046711    0.0700
     41 H41       -10.1612    0.9679   58.8083 H       1  ZINC000369046711    0.0800
     42 H42       -12.0696    1.6949   61.0843 H       1  ZINC000369046711    0.0600
     43 H43       -12.0427    2.4937   59.4910 H       1  ZINC000369046711    0.0700
     44 H44       -13.7538    0.7284   59.5191 H       1  ZINC000369046711    0.0700
     45 H45       -12.4425    0.2958   58.4021 H       1  ZINC000369046711    0.0600
     46 H46       -13.4218   -2.8118   59.9227 H       1  ZINC000369046711    0.0800
     47 H47       -13.8312   -1.6099   58.6671 H       1  ZINC000369046711    0.0800
     48 H48       -12.9280   -1.5235   56.9088 H       1  ZINC000369046711    0.0800
     49 H49       -11.2922   -2.1011   56.5103 H       1  ZINC000369046711    0.1000
     50 H50       -13.9522   -6.5883   56.7802 H       1  ZINC000369046711    0.2200
     51 H51       -13.7604   -3.0008   53.4702 H       1  ZINC000369046711    0.1200
     52 H52       -12.6542   -1.9984   54.4397 H       1  ZINC000369046711    0.1100
     53 H53       -10.7837   -3.5344   53.8842 H       1  ZINC000369046711    0.0900
     54 H54       -11.8920   -4.5236   52.9037 H       1  ZINC000369046711    0.0800
     55 H55        -9.8215   -2.3610   58.8429 H       1  ZINC000369046711    0.0900
     56 H56       -10.5568   -0.8687   58.1771 H       1  ZINC000369046711    0.0600
@<TRIPOS>BOND
     1     1     2    1
     2     1    30    1
     3     1    31    1
     4     1    32    1
     5     2     3    1
     6     2     4    1
     7     2     5    1
     8     3    33    1
     9     3    34    1
    10     3    35    1
    11     4    36    1
    12     4    37    1
    13     4    38    1
    14     5     6    1
    15     6     7    2
    16     6     8   am
    17     8     9    1
    18     8    39    1
    19     9    10    1
    20     9    28    1
    21     9    11    1
    22    11    12    1
    23    11    40    1
    24    11    41    1
    25    12    13    1
    26    12    42    1
    27    12    43    1
    28    13    14    1
    29    13    44    1
    30    13    45    1
    31    14    15    1
    32    14    28    1
    33    14    16    1
    34    16    17    1
    35    16    46    1
    36    16    47    1
    37    17    18    1
    38    17    27    1
    39    18    19    1
    40    18    48    1
    41    18    49    1
    42    19    23    1
    43    19    20    2
    44    20    21    1
    45    21    22    2
    46    21    50    1
    47    22    23    1
    48    23    24    1
    49    24    25    1
    50    24    51    1
    51    24    52    1
    52    25    26    1
    53    25    53    1
    54    25    54    1
    55    27    28    1
    56    27    55    1
    57    27    56    1
    58    28    29    1
@<TRIPOS>SUBSTRUCTURE
     1 ZINC000369046711        1 TEMP              0 ****  ****    0 ROOT


##########                                Name:    ZINC000151303733
##########                DOCK_Rotatable_Bonds:                   7
##########                         Heavy_Atoms:                  26
##########                    Molecular_Weight:             369.444
##########                DOCK_Rotatable_Bonds:                   7
##########                       Formal_Charge:        -1.93715e-07
##########                     HBond_Acceptors:                   7
##########                        HBond_Donors:                   2
##########                         Heavy_Atoms:                  26
##########                          Grid_Score:          -32.187649
##########                     Grid_vdw_energy:          -31.006678
##########                      Grid_es_energy:           -1.180972
##########           Internal_energy_repulsive:           13.243425

@<TRIPOS>MOLECULE
ZINC000151303733
 45 48 1 0 0
SMALL
USER_CHARGES


@<TRIPOS>ATOM
      1 C1        -13.2617    1.5769   48.1554 C.3     1  ZINC000151303733   -0.1000
      2 C2        -14.0620    2.3903   49.1398 C.2     1  ZINC000151303733   -0.1200
      3 C3        -15.3089    2.0708   49.4887 C.2     1  ZINC000151303733   -0.2000
      4 S4        -15.9184    3.2420   50.6503 S.3     1  ZINC000151303733    0.1200
      5 C5        -14.4015    4.1305   50.5989 C.2     1  ZINC000151303733   -0.2400
      6 C6        -13.5555    3.5258   49.7568 C.2     1  ZINC000151303733    0.1200
      7 N7        -12.2573    4.0089   49.5086 N.am    1  ZINC000151303733   -0.6400
      8 C8        -11.1857    3.3117   49.9353 C.2     1  ZINC000151303733    0.5100
      9 O9        -11.3403    2.2677   50.5334 O.2     1  ZINC000151303733   -0.5100
     10 C10        -9.7955    3.8292   49.6695 C.3     1  ZINC000151303733    0.1000
     11 N11        -8.8159    2.9489   50.3111 N.am    1  ZINC000151303733   -0.7100
     12 C12        -7.9305    3.4550   51.1922 C.2     1  ZINC000151303733    0.5200
     13 O13        -7.9439    4.6394   51.4528 O.2     1  ZINC000151303733   -0.5100
     14 C14        -6.9240    2.5492   51.8536 C.3     1  ZINC000151303733    0.1600
     15 H15        -6.6436    2.9496   52.8279 H       1  ZINC000151303733    0.1300
     16 C16        -5.7024    2.4069   50.9806 C.ar    1  ZINC000151303733   -0.0900
     17 C17        -4.7795    3.3050   50.4976 C.ar    1  ZINC000151303733   -0.0900
     18 C18        -3.7386    2.8643   49.6970 C.ar    1  ZINC000151303733   -0.0800
     19 C19        -3.6241    1.5223   49.3813 C.ar    1  ZINC000151303733   -0.1200
     20 C20        -4.5446    0.6129   49.8605 C.ar    1  ZINC000151303733   -0.0400
     21 C21        -5.5962    1.0494   50.6679 C.ar    1  ZINC000151303733   -0.1500
     22 C22        -6.7125    0.3363   51.3177 C.2     1  ZINC000151303733    0.5600
     23 O23        -6.9090   -0.8609   51.2437 O.2     1  ZINC000151303733   -0.5100
     24 N24        -7.4819    1.2005   52.0043 N.am    1  ZINC000151303733   -0.5700
     25 C25        -8.6786    0.8518   52.7742 C.3     1  ZINC000151303733    0.0900
     26 C26        -8.5858    0.9329   54.2993 C.3     1  ZINC000151303733   -0.1800
     27 C27        -9.3892    1.9798   53.5250 C.3     1  ZINC000151303733   -0.1900
     28 H28       -12.7097    0.8023   48.6879 H       1  ZINC000151303733    0.0700
     29 H29       -13.9352    1.1128   47.4350 H       1  ZINC000151303733    0.0700
     30 H30       -12.5611    2.2271   47.6315 H       1  ZINC000151303733    0.0600
     31 H31       -15.8610    1.2215   49.1141 H       1  ZINC000151303733    0.1700
     32 H32       -14.1844    5.0249   51.1640 H       1  ZINC000151303733    0.2000
     33 H33       -12.1337    4.8438   49.0304 H       1  ZINC000151303733    0.4200
     34 H34        -9.6153    3.8509   48.5947 H       1  ZINC000151303733    0.1100
     35 H35        -9.6991    4.8364   50.0745 H       1  ZINC000151303733    0.1100
     36 H36        -8.8044    2.0019   50.1017 H       1  ZINC000151303733    0.4100
     37 H37        -4.8665    4.3534   50.7422 H       1  ZINC000151303733    0.1300
     38 H38        -3.0147    3.5704   49.3180 H       1  ZINC000151303733    0.1400
     39 H39        -2.8105    1.1849   48.7563 H       1  ZINC000151303733    0.1400
     40 H40        -4.4513   -0.4340   49.6119 H       1  ZINC000151303733    0.1400
     41 H41        -9.2979    0.0622   52.3486 H       1  ZINC000151303733    0.1400
     42 H42        -9.1442    0.1964   54.8773 H       1  ZINC000151303733    0.1000
     43 H43        -7.6346    1.2456   54.7298 H       1  ZINC000151303733    0.1300
     44 H44        -8.9663    2.9813   53.4460 H       1  ZINC000151303733    0.1000
     45 H45       -10.4759    1.9321   53.5935 H       1  ZINC000151303733    0.1000
@<TRIPOS>BOND
     1     1     2    1
     2     1    28    1
     3     1    29    1
     4     1    30    1
     5     2     6    1
     6     2     3    2
     7     3     4    1
     8     3    31    1
     9     4     5    1
    10     5     6    2
    11     5    32    1
    12     6     7    1
    13     7     8   am
    14     7    33    1
    15     8     9    2
    16     8    10    1
    17    10    11    1
    18    10    34    1
    19    10    35    1
    20    11    12   am
    21    11    36    1
    22    12    13    2
    23    12    14    1
    24    14    15    1
    25    14    24    1
    26    14    16    1
    27    16    21   ar
    28    16    17   ar
    29    17    18   ar
    30    17    37    1
    31    18    19   ar
    32    18    38    1
    33    19    20   ar
    34    19    39    1
    35    20    21   ar
    36    20    40    1
    37    21    22    1
    38    22    23    2
    39    22    24   am
    40    24    25    1
    41    25    27    1
    42    25    26    1
    43    25    41    1
    44    26    27    1
    45    26    42    1
    46    26    43    1
    47    27    44    1
    48    27    45    1
@<TRIPOS>SUBSTRUCTURE
     1 ZINC000151303733        1 TEMP              0 ****  ****    0 ROOT


##########                                Name:    ZINC001500042809
##########                DOCK_Rotatable_Bonds:                   9
##########                         Heavy_Atoms:                  24
##########                    Molecular_Weight:              346.45
##########                DOCK_Rotatable_Bonds:                   9
##########                       Formal_Charge:           0.0200001
##########                     HBond_Acceptors:                   6
##########                        HBond_Donors:                   2
##########                         Heavy_Atoms:                  24
##########                          Grid_Score:          -32.152462
##########                     Grid_vdw_energy:          -31.260326
##########                      Grid_es_energy:           -0.892137
##########           Internal_energy_repulsive:           12.131401

@<TRIPOS>MOLECULE
ZINC001500042809
 46 47 1 0 0
SMALL
USER_CHARGES


@<TRIPOS>ATOM
      1 C1         -0.6240    2.1959   50.6422 C.3     1  ZINC001500042809    0.0200
      2 O2         -1.8223    2.7927   50.1423 O.3     1  ZINC001500042809   -0.3100
      3 C3         -2.9924    2.1805   50.4551 C.ar    1  ZINC001500042809    0.1600
      4 C4         -3.8391    2.7458   51.4015 C.ar    1  ZINC001500042809   -0.1600
      5 C5         -5.0271    2.1274   51.7220 C.ar    1  ZINC001500042809   -0.0200
      6 C6         -5.3810    0.9304   51.0941 C.ar    1  ZINC001500042809   -0.1800
      7 C7         -6.6534    0.2643   51.4347 C.2     1  ZINC001500042809    0.5600
      8 O8         -6.9887   -0.7445   50.8447 O.2     1  ZINC001500042809   -0.5300
      9 N9         -7.4437    0.7745   52.4000 N.am    1  ZINC001500042809   -0.7300
     10 C10        -8.7059    0.1125   52.7394 C.3     1  ZINC001500042809    0.1300
     11 C11        -9.6535    1.1233   53.3883 C.3     1  ZINC001500042809   -0.1200
     12 H12        -9.1402    2.0774   53.5083 H       1  ZINC001500042809    0.0900
     13 C13       -10.8830    1.3142   52.4980 C.3     1  ZINC001500042809   -0.1500
     14 C14       -10.0920    0.6041   54.7591 C.3     1  ZINC001500042809    0.1300
     15 N15       -10.7683   -0.6856   54.5992 N.am    1  ZINC001500042809   -0.7300
     16 C16       -11.3817   -1.2601   55.6528 C.2     1  ZINC001500042809    0.5900
     17 O17       -11.3750   -0.7068   56.7367 O.2     1  ZINC001500042809   -0.5200
     18 C18       -12.0569   -2.5514   55.4932 C.2     1  ZINC001500042809   -0.2800
     19 C19       -12.7794   -2.9384   54.3998 C.2     1  ZINC001500042809   -0.0100
     20 C20       -12.9791   -2.0658   53.1874 C.3     1  ZINC001500042809   -0.1100
     21 C21       -13.3054   -4.2032   54.5155 C.2     1  ZINC001500042809   -0.1500
     22 C22       -13.0247   -4.8318   55.6630 C.2     1  ZINC001500042809   -0.2200
     23 S23       -12.0608   -3.8533   56.6749 S.3     1  ZINC001500042809    0.1900
     24 C24        -4.5246    0.3626   50.1471 C.ar    1  ZINC001500042809   -0.0400
     25 C25        -3.3407    0.9897   49.8287 C.ar    1  ZINC001500042809   -0.2200
     26 H26        -0.6585    2.1691   51.7313 H       1  ZINC001500042809    0.0600
     27 H27        -0.5356    1.1804   50.2563 H       1  ZINC001500042809    0.0600
     28 H28         0.2360    2.7832   50.3203 H       1  ZINC001500042809    0.1000
     29 H29        -3.5648    3.6710   51.8863 H       1  ZINC001500042809    0.1400
     30 H30        -5.6840    2.5670   52.4579 H       1  ZINC001500042809    0.1400
     31 H31        -7.1768    1.5800   52.8700 H       1  ZINC001500042809    0.4000
     32 H32        -8.5124   -0.7033   53.4360 H       1  ZINC001500042809    0.0800
     33 H33        -9.1631   -0.2843   51.8330 H       1  ZINC001500042809    0.0800
     34 H34       -10.5706    1.6840   51.5214 H       1  ZINC001500042809    0.0600
     35 H35       -11.3963    0.3600   52.3779 H       1  ZINC001500042809    0.0600
     36 H36       -11.5582    2.0342   52.9603 H       1  ZINC001500042809    0.0600
     37 H37        -9.2172    0.4790   55.3970 H       1  ZINC001500042809    0.0800
     38 H38       -10.7761    1.3188   55.2165 H       1  ZINC001500042809    0.0800
     39 H39       -10.7748   -1.1261   53.7349 H       1  ZINC001500042809    0.4000
     40 H40       -12.1768   -2.2481   52.4724 H       1  ZINC001500042809    0.0800
     41 H41       -13.9380   -2.2999   52.7252 H       1  ZINC001500042809    0.0700
     42 H42       -12.9667   -1.0181   53.4879 H       1  ZINC001500042809    0.0900
     43 H43       -13.9018   -4.6561   53.7374 H       1  ZINC001500042809    0.1500
     44 H44       -13.3604   -5.8274   55.9133 H       1  ZINC001500042809    0.1700
     45 H45        -4.7927   -0.5648   49.6629 H       1  ZINC001500042809    0.1300
     46 H46        -2.6799    0.5532   49.0945 H       1  ZINC001500042809    0.1400
@<TRIPOS>BOND
     1     1     2    1
     2     1    26    1
     3     1    27    1
     4     1    28    1
     5     2     3    1
     6     3    25   ar
     7     3     4   ar
     8     4     5   ar
     9     4    29    1
    10     5     6   ar
    11     5    30    1
    12     6     7    1
    13     6    24   ar
    14     7     8    2
    15     7     9   am
    16     9    10    1
    17     9    31    1
    18    10    11    1
    19    10    32    1
    20    10    33    1
    21    11    12    1
    22    11    13    1
    23    11    14    1
    24    13    34    1
    25    13    35    1
    26    13    36    1
    27    14    15    1
    28    14    37    1
    29    14    38    1
    30    15    16   am
    31    15    39    1
    32    16    17    2
    33    16    18    1
    34    18    23    1
    35    18    19    2
    36    19    20    1
    37    19    21    1
    38    20    40    1
    39    20    41    1
    40    20    42    1
    41    21    22    2
    42    21    43    1
    43    22    23    1
    44    22    44    1
    45    24    25   ar
    46    24    45    1
    47    25    46    1
@<TRIPOS>SUBSTRUCTURE
     1 ZINC001500042809        1 TEMP              0 ****  ****    0 ROOT


##########                                Name:    ZINC000186316242
##########                DOCK_Rotatable_Bonds:                   7
##########                         Heavy_Atoms:                  28
##########                    Molecular_Weight:             392.525
##########                DOCK_Rotatable_Bonds:                   7
##########                       Formal_Charge:         -0.00999981
##########                     HBond_Acceptors:                   6
##########                        HBond_Donors:                   0
##########                         Heavy_Atoms:                  28
##########                          Grid_Score:          -32.151085
##########                     Grid_vdw_energy:          -32.342346
##########                      Grid_es_energy:            0.191263
##########           Internal_energy_repulsive:           22.571867

@<TRIPOS>MOLECULE
ZINC000186316242
 52 55 1 0 0
SMALL
USER_CHARGES


@<TRIPOS>ATOM
      1 C1         -7.9969    3.9452   55.1561 C.3     1  ZINC000186316242   -0.1500
      2 C2         -7.6150    2.5501   54.6574 C.3     1  ZINC000186316242    0.1000
      3 N3         -8.4909    2.1722   53.5455 N.am    1  ZINC000186316242   -0.5900
      4 C4         -9.7574    1.7806   53.7884 C.2     1  ZINC000186316242    0.5900
      5 O5        -10.4846    1.4668   52.8654 O.2     1  ZINC000186316242   -0.5000
      6 C6        -10.2612    1.7327   55.1723 C.2     1  ZINC000186316242    0.0100
      7 C7        -11.0861    2.6884   55.6860 C.2     1  ZINC000186316242   -0.2100
      8 S8        -11.4540    2.2923   57.3085 S.3     1  ZINC000186316242    0.2000
      9 C9        -10.4621    0.8429   57.1997 C.2     1  ZINC000186316242    0.0700
     10 C10       -10.2485   -0.1289   58.2942 C.ar    1  ZINC000186316242    0.1900
     11 C11       -10.7519    0.1404   59.5665 C.ar    1  ZINC000186316242   -0.1500
     12 C12       -10.5442   -0.7791   60.5803 C.ar    1  ZINC000186316242   -0.0700
     13 C13        -9.8397   -1.9384   60.2890 C.ar    1  ZINC000186316242   -0.1600
     14 C14        -9.3682   -2.1418   59.0044 C.ar    1  ZINC000186316242    0.1100
     15 N15        -9.5835   -1.2537   58.0562 N.ar    1  ZINC000186316242   -0.4500
     16 N16        -9.9513    0.7546   56.0101 N.2     1  ZINC000186316242   -0.3900
     17 C17        -7.9901    2.2198   52.1696 C.3     1  ZINC000186316242    0.1400
     18 H18        -8.8167    2.3504   51.4711 H       1  ZINC000186316242    0.1000
     19 C19        -7.2070    0.9287   51.8387 C.3     1  ZINC000186316242   -0.1300
     20 C20        -6.0199    1.4511   50.9910 C.3     1  ZINC000186316242    0.0400
     21 N21        -5.6777    2.7406   51.6437 N.3     1  ZINC000186316242   -0.4900
     22 C22        -4.9180    3.6067   50.7323 C.3     1  ZINC000186316242    0.0800
     23 C23        -3.5057    3.0944   50.6130 C.ar    1  ZINC000186316242   -0.0700
     24 C24        -3.1132    2.4070   49.4798 C.ar    1  ZINC000186316242   -0.1000
     25 C25        -1.8178    1.9372   49.3704 C.ar    1  ZINC000186316242   -0.1200
     26 C26        -0.9147    2.1551   50.3941 C.ar    1  ZINC000186316242   -0.1200
     27 C27        -1.3070    2.8433   51.5269 C.ar    1  ZINC000186316242   -0.1200
     28 C28        -2.6012    3.3169   51.6345 C.ar    1  ZINC000186316242   -0.1100
     29 C29        -6.9706    3.3631   52.0111 C.3     1  ZINC000186316242    0.0400
     30 H30        -7.3452    4.2264   55.9833 H       1  ZINC000186316242    0.0700
     31 H31        -7.8850    4.6644   54.3447 H       1  ZINC000186316242    0.0500
     32 H32        -9.0327    3.9388   55.4955 H       1  ZINC000186316242    0.0400
     33 H33        -6.5793    2.5566   54.3179 H       1  ZINC000186316242    0.1200
     34 H34        -7.7270    1.8309   55.4687 H       1  ZINC000186316242    0.0700
     35 H35       -11.4489    3.5556   55.1543 H       1  ZINC000186316242    0.1900
     36 H36       -11.2957    1.0535   59.7583 H       1  ZINC000186316242    0.1400
     37 H37       -10.9217   -0.5979   61.5757 H       1  ZINC000186316242    0.1400
     38 H38        -9.6608   -2.6750   61.0582 H       1  ZINC000186316242    0.1400
     39 H39        -8.8192   -3.0431   58.7750 H       1  ZINC000186316242    0.1600
     40 H40        -6.8489    0.4504   52.7504 H       1  ZINC000186316242    0.0900
     41 H41        -7.8230    0.2420   51.2580 H       1  ZINC000186316242    0.0700
     42 H42        -5.1786    0.7599   51.0399 H       1  ZINC000186316242    0.0800
     43 H43        -6.3269    1.6125   49.9576 H       1  ZINC000186316242    0.0400
     44 H44        -5.3900    3.6032   49.7498 H       1  ZINC000186316242    0.0400
     45 H45        -4.9037    4.6236   51.1247 H       1  ZINC000186316242    0.0800
     46 H46        -3.8187    2.2367   48.6800 H       1  ZINC000186316242    0.1200
     47 H47        -1.5113    1.3995   48.4853 H       1  ZINC000186316242    0.1200
     48 H48         0.0972    1.7874   50.3090 H       1  ZINC000186316242    0.1200
     49 H49        -0.6016    3.0134   52.3269 H       1  ZINC000186316242    0.1200
     50 H50        -2.9077    3.8546   52.5196 H       1  ZINC000186316242    0.1200
     51 H51        -7.2924    4.0437   51.2229 H       1  ZINC000186316242    0.0500
     52 H52        -6.8688    3.9027   52.9526 H       1  ZINC000186316242    0.0800
@<TRIPOS>BOND
     1     1     2    1
     2     1    30    1
     3     1    31    1
     4     1    32    1
     5     2     3    1
     6     2    33    1
     7     2    34    1
     8     3     4   am
     9     3    17    1
    10     4     5    2
    11     4     6    1
    12     6    16    1
    13     6     7    2
    14     7     8    1
    15     7    35    1
    16     8     9    1
    17     9    10    1
    18     9    16    2
    19    10    15   ar
    20    10    11   ar
    21    11    12   ar
    22    11    36    1
    23    12    13   ar
    24    12    37    1
    25    13    14   ar
    26    13    38    1
    27    14    15   ar
    28    14    39    1
    29    17    18    1
    30    17    29    1
    31    17    19    1
    32    19    20    1
    33    19    40    1
    34    19    41    1
    35    20    21    1
    36    20    42    1
    37    20    43    1
    38    21    22    1
    39    21    29    1
    40    22    23    1
    41    22    44    1
    42    22    45    1
    43    23    28   ar
    44    23    24   ar
    45    24    25   ar
    46    24    46    1
    47    25    26   ar
    48    25    47    1
    49    26    27   ar
    50    26    48    1
    51    27    28   ar
    52    27    49    1
    53    28    50    1
    54    29    51    1
    55    29    52    1
@<TRIPOS>SUBSTRUCTURE
     1 ZINC000186316242        1 TEMP              0 ****  ****    0 ROOT


##########                                Name:    ZINC000441887161
##########                DOCK_Rotatable_Bonds:                   6
##########                         Heavy_Atoms:                  27
##########                    Molecular_Weight:             383.514
##########                DOCK_Rotatable_Bonds:                   6
##########                       Formal_Charge:          -0.0300002
##########                     HBond_Acceptors:                   6
##########                        HBond_Donors:                   1
##########                         Heavy_Atoms:                  27
##########                          Grid_Score:          -32.140678
##########                     Grid_vdw_energy:          -31.766674
##########                      Grid_es_energy:           -0.374003
##########           Internal_energy_repulsive:           14.856736

@<TRIPOS>MOLECULE
ZINC000441887161
 52 54 1 0 0
SMALL
USER_CHARGES


@<TRIPOS>ATOM
      1 C1        -12.4329    1.1872   52.2081 C.3     1  ZINC000441887161   -0.1200
      2 C2        -10.9951    1.5905   52.0058 C.ar    1  ZINC000441887161   -0.0700
      3 C3        -10.6941    2.7922   51.3929 C.ar    1  ZINC000441887161   -0.1200
      4 C4         -9.3749    3.1622   51.2074 C.ar    1  ZINC000441887161   -0.0900
      5 C5         -8.3572    2.3308   51.6353 C.ar    1  ZINC000441887161   -0.1100
      6 C6         -6.9194    2.7339   51.4327 C.3     1  ZINC000441887161    0.1900
      7 H7         -6.3102    2.3246   52.2386 H       1  ZINC000441887161    0.1000
      8 C8         -6.4218    2.1915   50.0914 C.3     1  ZINC000441887161    0.1000
      9 N9         -4.9796    1.9457   50.1687 N.pl3   1  ZINC000441887161   -0.4600
     10 C10        -4.0120    2.8713   50.4526 C.2     1  ZINC000441887161   -0.0500
     11 C11        -2.8318    2.2233   50.4217 C.2     1  ZINC000441887161   -0.0200
     12 N12        -3.0723    0.9372   50.1269 N.2     1  ZINC000441887161   -0.4900
     13 C13        -4.3571    0.7625   49.9789 C.2     1  ZINC000441887161    0.1800
     14 N14        -6.8167    4.1953   51.4369 N.am    1  ZINC000441887161   -1.1100
     15 S15        -6.6950    5.0127   52.8720 S.o2    1  ZINC000441887161    2.6900
     16 O16        -6.4605    6.3742   52.5395 O.2     1  ZINC000441887161   -0.9600
     17 O17        -7.7892    4.5851   53.6714 O.2     1  ZINC000441887161   -0.9500
     18 C18        -5.2365    4.4388   53.6769 C.ar    1  ZINC000441887161   -0.6800
     19 C19        -3.9930    4.7640   53.1686 C.ar    1  ZINC000441887161   -0.0300
     20 C20        -2.8486    4.3136   53.8002 C.ar    1  ZINC000441887161   -0.1300
     21 C21        -2.9479    3.5386   54.9403 C.ar    1  ZINC000441887161   -0.0200
     22 C22        -1.7005    3.0473   55.6285 C.3     1  ZINC000441887161   -0.1300
     23 C23        -4.1918    3.2145   55.4496 C.ar    1  ZINC000441887161   -0.1000
     24 C24        -4.3001    2.3698   56.6929 C.3     1  ZINC000441887161   -0.1200
     25 C25        -5.3357    3.6679   54.8204 C.ar    1  ZINC000441887161   -0.0100
     26 C26        -8.6583    1.1294   52.2497 C.ar    1  ZINC000441887161   -0.0700
     27 C27        -7.5487    0.2230   52.7167 C.3     1  ZINC000441887161   -0.1300
     28 C28        -9.9771    0.7612   52.4386 C.ar    1  ZINC000441887161   -0.1200
     29 H29       -12.7836    1.5615   53.1699 H       1  ZINC000441887161    0.0700
     30 H30       -13.0441    1.6081   51.4097 H       1  ZINC000441887161    0.0700
     31 H31       -12.5112    0.1001   52.1909 H       1  ZINC000441887161    0.0700
     32 H32       -11.4894    3.4420   51.0585 H       1  ZINC000441887161    0.1200
     33 H33        -9.1398    4.1009   50.7278 H       1  ZINC000441887161    0.1200
     34 H34        -6.9376    1.2589   49.8627 H       1  ZINC000441887161    0.1100
     35 H35        -6.6245    2.9206   49.3069 H       1  ZINC000441887161    0.1000
     36 H36        -4.1654    3.9199   50.6611 H       1  ZINC000441887161    0.1700
     37 H37        -1.8619    2.6624   50.6026 H       1  ZINC000441887161    0.1600
     38 H38        -4.8417   -0.1722   49.7381 H       1  ZINC000441887161    0.2000
     39 H39        -6.8200    4.6841   50.5991 H       1  ZINC000441887161    0.4200
     40 H40        -3.9154    5.3696   52.2777 H       1  ZINC000441887161    0.1300
     41 H41        -1.8770    4.5671   53.4025 H       1  ZINC000441887161    0.1300
     42 H42        -1.3846    3.7780   56.3730 H       1  ZINC000441887161    0.0800
     43 H43        -1.9066    2.0955   56.1181 H       1  ZINC000441887161    0.0800
     44 H44        -0.9082    2.9130   54.8921 H       1  ZINC000441887161    0.0700
     45 H45        -4.3107    3.0156   57.5711 H       1  ZINC000441887161    0.0800
     46 H46        -5.2214    1.7886   56.6582 H       1  ZINC000441887161    0.0700
     47 H47        -3.4463    1.6945   56.7489 H       1  ZINC000441887161    0.0700
     48 H48        -6.3073    3.4146   55.2182 H       1  ZINC000441887161    0.1400
     49 H49        -7.2836    0.4728   53.7441 H       1  ZINC000441887161    0.0800
     50 H50        -7.8820   -0.8137   52.6694 H       1  ZINC000441887161    0.0700
     51 H51        -6.6777    0.3542   52.0745 H       1  ZINC000441887161    0.0600
     52 H52       -10.2122   -0.1773   52.9186 H       1  ZINC000441887161    0.1300
@<TRIPOS>BOND
     1     1     2    1
     2     1    29    1
     3     1    30    1
     4     1    31    1
     5     2    28   ar
     6     2     3   ar
     7     3     4   ar
     8     3    32    1
     9     4     5   ar
    10     4    33    1
    11     5     6    1
    12     5    26   ar
    13     6     7    1
    14     6     8    1
    15     6    14    1
    16     8     9    1
    17     8    34    1
    18     8    35    1
    19     9    13    1
    20     9    10    1
    21    10    11    2
    22    10    36    1
    23    11    12    1
    24    11    37    1
    25    12    13    2
    26    13    38    1
    27    14    15   am
    28    14    39    1
    29    15    16    2
    30    15    17    2
    31    15    18    1
    32    18    25   ar
    33    18    19   ar
    34    19    20   ar
    35    19    40    1
    36    20    21   ar
    37    20    41    1
    38    21    22    1
    39    21    23   ar
    40    22    42    1
    41    22    43    1
    42    22    44    1
    43    23    24    1
    44    23    25   ar
    45    24    45    1
    46    24    46    1
    47    24    47    1
    48    25    48    1
    49    26    27    1
    50    26    28   ar
    51    27    49    1
    52    27    50    1
    53    27    51    1
    54    28    52    1
@<TRIPOS>SUBSTRUCTURE
     1 ZINC000441887161        1 TEMP              0 ****  ****    0 ROOT


##########                                Name:    ZINC000581017854
##########                DOCK_Rotatable_Bonds:                   6
##########                         Heavy_Atoms:                  24
##########                    Molecular_Weight:             330.334
##########                DOCK_Rotatable_Bonds:                   6
##########                       Formal_Charge:           0.0099998
##########                     HBond_Acceptors:                   6
##########                        HBond_Donors:                   2
##########                         Heavy_Atoms:                  24
##########                          Grid_Score:          -32.132805
##########                     Grid_vdw_energy:          -29.661440
##########                      Grid_es_energy:           -2.471364
##########           Internal_energy_repulsive:           10.615936

@<TRIPOS>MOLECULE
ZINC000581017854
 40 42 1 0 0
SMALL
USER_CHARGES


@<TRIPOS>ATOM
      1 C1        -14.2796   -4.9151   57.0056 C.3     1  ZINC000581017854   -0.1600
      2 C2        -12.7872   -4.8050   56.6868 C.3     1  ZINC000581017854    0.1500
      3 H3        -12.3420   -5.7999   56.6834 H       1  ZINC000581017854    0.1100
      4 C4        -12.6057   -4.1604   55.3112 C.3     1  ZINC000581017854    0.0500
      5 O5        -13.2081   -2.8645   55.3091 O.3     1  ZINC000581017854   -0.3100
      6 C6        -13.1631   -2.1651   54.1448 C.ar    1  ZINC000581017854    0.1600
      7 C7        -12.6029   -2.7374   53.0120 C.ar    1  ZINC000581017854   -0.2200
      8 C8        -12.5577   -2.0253   51.8287 C.ar    1  ZINC000581017854   -0.0500
      9 C9        -13.0697   -0.7428   51.7720 C.ar    1  ZINC000581017854   -0.1900
     10 C10       -13.6293   -0.1680   52.9012 C.ar    1  ZINC000581017854    0.1400
     11 F11       -14.1292    1.0858   52.8438 F       1  ZINC000581017854   -0.1300
     12 C12       -13.6825   -0.8802   54.0860 C.ar    1  ZINC000581017854   -0.1900
     13 N13       -12.1303   -3.9795   57.7034 N.am    1  ZINC000581017854   -0.7300
     14 C14       -10.9299   -4.3446   58.1953 C.2     1  ZINC000581017854    0.5900
     15 O15       -10.3923   -5.3605   57.7962 O.2     1  ZINC000581017854   -0.5400
     16 C16       -10.2704   -3.5159   59.2135 C.2     1  ZINC000581017854   -0.2200
     17 C17        -8.9500   -3.5369   59.5527 C.2     1  ZINC000581017854    0.1100
     18 N18        -8.7141   -2.6310   60.5327 N.pl3   1  ZINC000581017854   -0.5700
     19 C19        -9.8799   -1.9773   60.8751 C.ar    1  ZINC000581017854    0.1100
     20 C20       -10.1762   -0.9822   61.8003 C.ar    1  ZINC000581017854   -0.1600
     21 C21       -11.4696   -0.5159   61.9190 C.ar    1  ZINC000581017854    0.1200
     22 F22       -11.7529    0.4512   62.8188 F       1  ZINC000581017854   -0.1400
     23 C23       -12.4828   -1.0319   61.1208 C.ar    1  ZINC000581017854   -0.1700
     24 C24       -12.2069   -2.0180   60.1992 C.ar    1  ZINC000581017854   -0.0300
     25 C25       -10.9049   -2.4929   60.0655 C.ar    1  ZINC000581017854   -0.0700
     26 H26       -14.7683   -5.5292   56.2492 H       1  ZINC000581017854    0.0700
     27 H27       -14.4088   -5.3743   57.9856 H       1  ZINC000581017854    0.0700
     28 H28       -14.7248   -3.9202   57.0089 H       1  ZINC000581017854    0.0700
     29 H29       -11.5422   -4.0669   55.0912 H       1  ZINC000581017854    0.0700
     30 H30       -13.0804   -4.7829   54.5527 H       1  ZINC000581017854    0.0800
     31 H31       -12.2020   -3.7392   53.0551 H       1  ZINC000581017854    0.1400
     32 H32       -12.1215   -2.4713   50.9471 H       1  ZINC000581017854    0.1400
     33 H33       -13.0330   -0.1879   50.8462 H       1  ZINC000581017854    0.1400
     34 H34       -14.1190   -0.4327   54.9667 H       1  ZINC000581017854    0.1400
     35 H35       -12.5595   -3.1703   58.0225 H       1  ZINC000581017854    0.4000
     36 H36        -8.2044   -4.1788   59.1076 H       1  ZINC000581017854    0.1800
     37 H37        -7.8478   -2.4659   60.9368 H       1  ZINC000581017854    0.4200
     38 H38        -9.3952   -0.5752   62.4254 H       1  ZINC000581017854    0.1400
     39 H39       -13.4911   -0.6588   61.2237 H       1  ZINC000581017854    0.1400
     40 H40       -12.9963   -2.4179   59.5800 H       1  ZINC000581017854    0.1500
@<TRIPOS>BOND
     1     1     2    1
     2     1    26    1
     3     1    27    1
     4     1    28    1
     5     2     3    1
     6     2     4    1
     7     2    13    1
     8     4     5    1
     9     4    29    1
    10     4    30    1
    11     5     6    1
    12     6    12   ar
    13     6     7   ar
    14     7     8   ar
    15     7    31    1
    16     8     9   ar
    17     8    32    1
    18     9    10   ar
    19     9    33    1
    20    10    11    1
    21    10    12   ar
    22    12    34    1
    23    13    14   am
    24    13    35    1
    25    14    15    2
    26    14    16    1
    27    16    25    1
    28    16    17    2
    29    17    18    1
    30    17    36    1
    31    18    19    1
    32    18    37    1
    33    19    25   ar
    34    19    20   ar
    35    20    21   ar
    36    20    38    1
    37    21    22    1
    38    21    23   ar
    39    23    24   ar
    40    23    39    1
    41    24    25   ar
    42    24    40    1
@<TRIPOS>SUBSTRUCTURE
     1 ZINC000581017854        1 TEMP              0 ****  ****    0 ROOT


##########                                Name:    ZINC001176298561
##########                DOCK_Rotatable_Bonds:                   6
##########                         Heavy_Atoms:                  23
##########                    Molecular_Weight:             337.781
##########                DOCK_Rotatable_Bonds:                   6
##########                       Formal_Charge:          -0.0100003
##########                     HBond_Acceptors:                   7
##########                        HBond_Donors:                   2
##########                         Heavy_Atoms:                  23
##########                          Grid_Score:          -32.127228
##########                     Grid_vdw_energy:          -29.666882
##########                      Grid_es_energy:           -2.460345
##########           Internal_energy_repulsive:           15.647122

@<TRIPOS>MOLECULE
ZINC001176298561
 40 41 1 0 0
SMALL
USER_CHARGES


@<TRIPOS>ATOM
      1 C1         -5.5925    1.4447   65.9948 C.3     1  ZINC001176298561   -0.1700
      2 C2         -6.8378    0.5918   66.2453 C.3     1  ZINC001176298561    0.1100
      3 N3         -7.6959    0.6204   65.0583 N.am    1  ZINC001176298561   -0.6100
      4 C4         -7.6413    1.7624   64.1422 C.3     1  ZINC001176298561    0.0900
      5 C5         -8.4793    2.9107   64.7081 C.3     1  ZINC001176298561   -0.1800
      6 C6         -8.5356   -0.4038   64.8090 C.2     1  ZINC001176298561    0.5600
      7 O7         -8.5809   -1.3514   65.5690 O.2     1  ZINC001176298561   -0.5300
      8 C8         -9.4019   -0.3750   63.6109 C.ar    1  ZINC001176298561   -0.0600
      9 C9        -10.7287    0.0448   63.7167 C.ar    1  ZINC001176298561   -0.1900
     10 C10       -11.5367    0.0708   62.5949 C.ar    1  ZINC001176298561    0.1400
     11 F11       -12.8208    0.4778   62.6989 F       1  ZINC001176298561   -0.1300
     12 C12       -11.0334   -0.3184   61.3658 C.ar    1  ZINC001176298561   -0.1800
     13 C13        -9.7130   -0.7378   61.2521 C.ar    1  ZINC001176298561    0.2400
     14 N14        -9.2092   -1.1293   60.0095 N.pl3   1  ZINC001176298561   -0.6700
     15 C15        -9.8859   -2.0928   59.2519 C.2     1  ZINC001176298561    0.0400
     16 C16       -10.8360   -1.7161   58.3422 C.2     1  ZINC001176298561   -0.0300
     17 C17       -11.4989   -2.7017   57.5956 C.2     1  ZINC001176298561   -0.1300
     18 Cl18      -12.7076   -2.2454   56.4361 Cl      1  ZINC001176298561   -0.0400
     19 C19       -11.1961   -4.0079   57.7787 C.2     1  ZINC001176298561    0.1400
     20 N20       -10.2515   -4.3840   58.6832 N.am    1  ZINC001176298561   -0.6000
     21 C21        -9.5919   -3.4646   59.4134 C.2     1  ZINC001176298561    0.5100
     22 O22        -8.7469   -3.8173   60.2206 O.2     1  ZINC001176298561   -0.5200
     23 C23        -8.8938   -0.7616   62.3710 C.ar    1  ZINC001176298561   -0.1300
     24 H24        -4.9539    1.4233   66.8780 H       1  ZINC001176298561    0.0700
     25 H25        -5.0448    1.0462   65.1408 H       1  ZINC001176298561    0.0600
     26 H26        -5.8914    2.4721   65.7874 H       1  ZINC001176298561    0.0600
     27 H27        -6.5387   -0.4357   66.4527 H       1  ZINC001176298561    0.0800
     28 H28        -7.3854    0.9903   67.0993 H       1  ZINC001176298561    0.0900
     29 H29        -6.6074    2.0885   64.0292 H       1  ZINC001176298561    0.0900
     30 H30        -8.0376    1.4679   63.1704 H       1  ZINC001176298561    0.0800
     31 H31        -8.3327    2.9704   65.7865 H       1  ZINC001176298561    0.0700
     32 H32        -8.1694    3.8483   64.2467 H       1  ZINC001176298561    0.0700
     33 H33        -9.5329    2.7314   64.4940 H       1  ZINC001176298561    0.0600
     34 H34       -11.1243    0.3488   64.6745 H       1  ZINC001176298561    0.1500
     35 H35       -11.6686   -0.2967   60.4925 H       1  ZINC001176298561    0.1300
     36 H36        -8.3906   -0.7337   59.6715 H       1  ZINC001176298561    0.4200
     37 H37       -11.0731   -0.6720   58.2007 H       1  ZINC001176298561    0.1500
     38 H38       -11.7107   -4.7609   57.2003 H       1  ZINC001176298561    0.1800
     39 H39       -10.0483   -5.3253   58.8007 H       1  ZINC001176298561    0.4300
     40 H40        -7.8677   -1.0872   62.2840 H       1  ZINC001176298561    0.1400
@<TRIPOS>BOND
     1     1     2    1
     2     1    24    1
     3     1    25    1
     4     1    26    1
     5     2     3    1
     6     2    27    1
     7     2    28    1
     8     3     4    1
     9     3     6   am
    10     4     5    1
    11     4    29    1
    12     4    30    1
    13     5    31    1
    14     5    32    1
    15     5    33    1
    16     6     7    2
    17     6     8    1
    18     8    23   ar
    19     8     9   ar
    20     9    10   ar
    21     9    34    1
    22    10    11    1
    23    10    12   ar
    24    12    13   ar
    25    12    35    1
    26    13    14    1
    27    13    23   ar
    28    14    15    1
    29    14    36    1
    30    15    21    1
    31    15    16    2
    32    16    17    1
    33    16    37    1
    34    17    18    1
    35    17    19    2
    36    19    20    1
    37    19    38    1
    38    20    21   am
    39    20    39    1
    40    21    22    2
    41    23    40    1
@<TRIPOS>SUBSTRUCTURE
     1 ZINC001176298561        1 TEMP              0 ****  ****    0 ROOT


##########                                Name:    ZINC000899027326
##########                DOCK_Rotatable_Bonds:                   5
##########                         Heavy_Atoms:                  22
##########                    Molecular_Weight:             346.169
##########                DOCK_Rotatable_Bonds:                   5
##########                       Formal_Charge:           0.0300005
##########                     HBond_Acceptors:                   9
##########                        HBond_Donors:                   1
##########                         Heavy_Atoms:                  22
##########                          Grid_Score:          -32.102283
##########                     Grid_vdw_energy:          -29.492455
##########                      Grid_es_energy:           -2.609828
##########           Internal_energy_repulsive:            7.428184

@<TRIPOS>MOLECULE
ZINC000899027326
 35 36 1 0 0
SMALL
USER_CHARGES


@<TRIPOS>ATOM
      1 C1         -7.0503    1.9769   50.6581 C.3     1  ZINC000899027326   -0.1500
      2 C2         -6.0064    1.3960   51.6142 C.3     1  ZINC000899027326    0.1100
      3 H3         -6.4391    0.5922   52.2100 H       1  ZINC000899027326    0.1400
      4 C4         -4.7976    0.8994   50.8462 C.2     1  ZINC000899027326    0.5300
      5 O5         -4.7718    0.0249   50.0070 O.2     1  ZINC000899027326   -0.4500
      6 N6         -3.7577    1.6328   51.2899 N.am    1  ZINC000899027326   -0.3700
      7 N7         -2.4415    1.4901   50.8313 N.am    1  ZINC000899027326   -0.5000
      8 C8         -2.1302    1.8219   49.5626 C.2     1  ZINC000899027326    0.5200
      9 O9         -2.9892    2.2453   48.8184 O.2     1  ZINC000899027326   -0.4800
     10 C10        -0.7149    1.6667   49.0689 C.3     1  ZINC000899027326    0.0500
     11 O11         0.1945    1.9280   50.1397 O.3     1  ZINC000899027326   -0.2700
     12 C12         1.5153    1.9958   49.8251 C.ar    1  ZINC000899027326    0.1400
     13 C13         1.9430    1.6626   48.5490 C.ar    1  ZINC000899027326   -0.1900
     14 C14         3.2861    1.7321   48.2309 C.ar    1  ZINC000899027326   -0.0600
     15 C15         4.2042    2.1338   49.1844 C.ar    1  ZINC000899027326   -0.0600
     16 Cl16        5.8905    2.2207   48.7816 Cl      1  ZINC000899027326   -0.0500
     17 C17         3.7802    2.4671   50.4590 C.ar    1  ZINC000899027326   -0.0600
     18 C18         2.4372    2.4045   50.7795 C.ar    1  ZINC000899027326   -0.0500
     19 Cl19        1.9052    2.8226   52.3783 Cl      1  ZINC000899027326   -0.0300
     20 C20        -4.1375    2.5145   52.2217 C.2     1  ZINC000899027326    0.7000
     21 O21        -3.3767    3.2870   52.7709 O.2     1  ZINC000899027326   -0.5200
     22 N22        -5.4585    2.4497   52.4856 N.am    1  ZINC000899027326   -0.6200
     23 C23        -6.2003    3.2695   53.4468 C.3     1  ZINC000899027326    0.1200
     24 H24        -6.5967    2.7695   50.0631 H       1  ZINC000899027326    0.0700
     25 H25        -7.4155    1.1905   49.9978 H       1  ZINC000899027326    0.0900
     26 H26        -7.8821    2.3844   51.2326 H       1  ZINC000899027326    0.0900
     27 H27        -1.7543    1.1526   51.4269 H       1  ZINC000899027326    0.4300
     28 H28        -0.5662    0.6499   48.7058 H       1  ZINC000899027326    0.1100
     29 H29        -0.5336    2.3722   48.2580 H       1  ZINC000899027326    0.1100
     30 H30         1.2269    1.3485   47.8040 H       1  ZINC000899027326    0.1500
     31 H31         3.6192    1.4721   47.2371 H       1  ZINC000899027326    0.1500
     32 H32         4.4984    2.7806   51.2021 H       1  ZINC000899027326    0.1500
     33 H33        -5.5167    3.9626   53.9371 H       1  ZINC000899027326    0.0900
     34 H34        -6.9742    3.8314   52.9240 H       1  ZINC000899027326    0.0700
     35 H35        -6.6619    2.6245   54.1945 H       1  ZINC000899027326    0.0700
@<TRIPOS>BOND
     1     1     2    1
     2     1    24    1
     3     1    25    1
     4     1    26    1
     5     2     3    1
     6     2    22    1
     7     2     4    1
     8     4     5    2
     9     4     6   am
    10     6     7    1
    11     6    20   am
    12     7     8   am
    13     7    27    1
    14     8     9    2
    15     8    10    1
    16    10    11    1
    17    10    28    1
    18    10    29    1
    19    11    12    1
    20    12    18   ar
    21    12    13   ar
    22    13    14   ar
    23    13    30    1
    24    14    15   ar
    25    14    31    1
    26    15    16    1
    27    15    17   ar
    28    17    18   ar
    29    17    32    1
    30    18    19    1
    31    20    21    2
    32    20    22   am
    33    22    23    1
    34    23    33    1
    35    23    34    1
    36    23    35    1
@<TRIPOS>SUBSTRUCTURE
     1 ZINC000899027326        1 TEMP              0 ****  ****    0 ROOT


##########                                Name:    ZINC000486710336
##########                DOCK_Rotatable_Bonds:                   6
##########                         Heavy_Atoms:                  31
##########                    Molecular_Weight:             420.555
##########                DOCK_Rotatable_Bonds:                   6
##########                       Formal_Charge:         1.49012e-07
##########                     HBond_Acceptors:                   6
##########                        HBond_Donors:                   1
##########                         Heavy_Atoms:                  31
##########                          Grid_Score:          -32.076347
##########                     Grid_vdw_energy:          -30.903044
##########                      Grid_es_energy:           -1.173302
##########           Internal_energy_repulsive:           59.675335

@<TRIPOS>MOLECULE
ZINC000486710336
 63 67 1 0 0
SMALL
USER_CHARGES


@<TRIPOS>ATOM
      1 C1         -9.6782    3.2800   50.6634 C.3     1  ZINC000486710336    0.1000
      2 N2         -8.5157    2.5770   51.2116 N.pl3   1  ZINC000486710336   -0.3900
      3 N3         -7.1725    2.9138   51.0004 N.2     1  ZINC000486710336   -0.2800
      4 C4         -6.4247    2.0588   51.6501 C.2     1  ZINC000486710336    0.1000
      5 C5         -4.9183    2.0592   51.6910 C.3     1  ZINC000486710336   -0.0100
      6 C6         -4.3430    1.2806   50.4819 C.3     1  ZINC000486710336   -0.1200
      7 C7         -2.9201    1.8754   50.3381 C.3     1  ZINC000486710336   -0.1200
      8 C8         -3.1032    3.3746   50.6524 C.3     1  ZINC000486710336   -0.1200
      9 C9         -4.3737    3.4914   51.5126 C.3     1  ZINC000486710336   -0.1100
     10 C10        -7.2590    1.1455   52.2993 C.2     1  ZINC000486710336   -0.2600
     11 C11        -8.5481    1.4857   52.0200 C.2     1  ZINC000486710336    0.3000
     12 N12        -9.6894    0.8305   52.4737 N.am    1  ZINC000486710336   -0.6200
     13 C13        -9.7437   -0.5160   52.4599 C.2     1  ZINC000486710336    0.5100
     14 O14        -8.7979   -1.1576   52.0505 O.2     1  ZINC000486710336   -0.4800
     15 C15       -10.9672   -1.2189   52.9481 C.2     1  ZINC000486710336    0.5300
     16 O16       -11.2421   -2.3229   52.5257 O.2     1  ZINC000486710336   -0.5100
     17 N17       -11.7665   -0.6273   53.8579 N.am    1  ZINC000486710336   -0.5800
     18 C18       -11.5631    0.7054   54.4541 C.3     1  ZINC000486710336    0.1000
     19 C19       -12.7102    0.9330   55.4635 C.3     1  ZINC000486710336   -0.0600
     20 H20       -13.5244    1.4930   55.0036 H       1  ZINC000486710336    0.1000
     21 C21       -12.2061    1.6407   56.6948 C.ar    1  ZINC000486710336   -0.0700
     22 C22       -12.9105    1.5509   57.8808 C.ar    1  ZINC000486710336   -0.1100
     23 C23       -12.4481    2.2001   59.0102 C.ar    1  ZINC000486710336   -0.1200
     24 C24       -11.2811    2.9388   58.9537 C.ar    1  ZINC000486710336   -0.1200
     25 C25       -10.5762    3.0280   57.7679 C.ar    1  ZINC000486710336   -0.1200
     26 C26       -11.0363    2.3752   56.6396 C.ar    1  ZINC000486710336   -0.1100
     27 C27       -13.1611   -0.5211   55.8020 C.3     1  ZINC000486710336   -0.0800
     28 H28       -14.1863   -0.5703   56.1687 H       1  ZINC000486710336    0.1100
     29 C29       -12.1523   -1.0667   56.8149 C.3     1  ZINC000486710336   -0.1100
     30 C30       -12.2447   -2.5882   56.9021 C.3     1  ZINC000486710336   -0.1200
     31 C31       -11.8949   -3.1803   55.5326 C.3     1  ZINC000486710336   -0.1100
     32 C32       -12.9395   -2.7082   54.5211 C.3     1  ZINC000486710336   -0.1400
     33 C33       -12.9939   -1.1928   54.4240 C.3     1  ZINC000486710336    0.1400
     34 H34       -13.8250   -0.9160   53.7752 H       1  ZINC000486710336    0.0800
     35 H35        -9.9856    4.0663   51.3529 H       1  ZINC000486710336    0.0800
     36 H36        -9.4157    3.7217   49.7022 H       1  ZINC000486710336    0.1000
     37 H37       -10.4983    2.5750   50.5275 H       1  ZINC000486710336    0.0800
     38 H38        -4.5630    1.6299   52.6278 H       1  ZINC000486710336    0.0900
     39 H39        -4.2954    0.2131   50.6971 H       1  ZINC000486710336    0.0700
     40 H40        -4.9329    1.4691   49.5849 H       1  ZINC000486710336    0.0800
     41 H41        -2.2401    1.4156   51.0553 H       1  ZINC000486710336    0.0700
     42 H42        -2.5514    1.7411   49.3212 H       1  ZINC000486710336    0.0700
     43 H43        -2.2417    3.7480   51.2062 H       1  ZINC000486710336    0.0600
     44 H44        -3.2255    3.9378   49.7273 H       1  ZINC000486710336    0.0600
     45 H45        -5.1126    4.1114   51.0048 H       1  ZINC000486710336    0.0700
     46 H46        -4.1289    3.9215   52.4838 H       1  ZINC000486710336    0.0700
     47 H47        -6.9387    0.3190   52.9162 H       1  ZINC000486710336    0.1700
     48 H48       -10.4456    1.3431   52.7998 H       1  ZINC000486710336    0.4200
     49 H49       -10.6033    0.7387   54.9696 H       1  ZINC000486710336    0.0900
     50 H50       -11.5961    1.4686   53.6767 H       1  ZINC000486710336    0.0800
     51 H51       -13.8223    0.9737   57.9248 H       1  ZINC000486710336    0.1200
     52 H52       -12.9988    2.1304   59.9366 H       1  ZINC000486710336    0.1200
     53 H53       -10.9202    3.4466   59.8360 H       1  ZINC000486710336    0.1200
     54 H54        -9.6646    3.6054   57.7237 H       1  ZINC000486710336    0.1200
     55 H55       -10.4856    2.4449   55.7132 H       1  ZINC000486710336    0.1200
     56 H56       -11.1455   -0.7852   56.5062 H       1  ZINC000486710336    0.0700
     57 H57       -12.3598   -0.6375   57.7951 H       1  ZINC000486710336    0.0700
     58 H58       -11.5412   -2.9551   57.6495 H       1  ZINC000486710336    0.0600
     59 H59       -13.2588   -2.8779   57.1776 H       1  ZINC000486710336    0.0600
     60 H60       -10.9066   -2.8379   55.2263 H       1  ZINC000486710336    0.0500
     61 H61       -11.9053   -4.2687   55.5899 H       1  ZINC000486710336    0.0600
     62 H62       -12.6978   -3.1182   53.5405 H       1  ZINC000486710336    0.1000
     63 H63       -13.9212   -3.0703   54.8263 H       1  ZINC000486710336    0.0700
@<TRIPOS>BOND
     1     1     2    1
     2     1    35    1
     3     1    36    1
     4     1    37    1
     5     2    11    1
     6     2     3    1
     7     3     4    2
     8     4     5    1
     9     4    10    1
    10     5     9    1
    11     5     6    1
    12     5    38    1
    13     6     7    1
    14     6    39    1
    15     6    40    1
    16     7     8    1
    17     7    41    1
    18     7    42    1
    19     8     9    1
    20     8    43    1
    21     8    44    1
    22     9    45    1
    23     9    46    1
    24    10    11    2
    25    10    47    1
    26    11    12    1
    27    12    13   am
    28    12    48    1
    29    13    14    2
    30    13    15    1
    31    15    16    2
    32    15    17   am
    33    17    33    1
    34    17    18    1
    35    18    19    1
    36    18    49    1
    37    18    50    1
    38    19    20    1
    39    19    21    1
    40    19    27    1
    41    21    26   ar
    42    21    22   ar
    43    22    23   ar
    44    22    51    1
    45    23    24   ar
    46    23    52    1
    47    24    25   ar
    48    24    53    1
    49    25    26   ar
    50    25    54    1
    51    26    55    1
    52    27    28    1
    53    27    33    1
    54    27    29    1
    55    29    30    1
    56    29    56    1
    57    29    57    1
    58    30    31    1
    59    30    58    1
    60    30    59    1
    61    31    32    1
    62    31    60    1
    63    31    61    1
    64    32    33    1
    65    32    62    1
    66    32    63    1
    67    33    34    1
@<TRIPOS>SUBSTRUCTURE
     1 ZINC000486710336        1 TEMP              0 ****  ****    0 ROOT


##########                                Name:    ZINC000915315870
##########                DOCK_Rotatable_Bonds:                   4
##########                         Heavy_Atoms:                  24
##########                    Molecular_Weight:             357.381
##########                DOCK_Rotatable_Bonds:                   4
##########                       Formal_Charge:           0.0300002
##########                     HBond_Acceptors:                   9
##########                        HBond_Donors:                   1
##########                         Heavy_Atoms:                  24
##########                          Grid_Score:          -32.049530
##########                     Grid_vdw_energy:          -31.450516
##########                      Grid_es_energy:           -0.599013
##########           Internal_energy_repulsive:           35.629162

@<TRIPOS>MOLECULE
ZINC000915315870
 41 43 1 0 0
SMALL
USER_CHARGES


@<TRIPOS>ATOM
      1 C1         -9.1211   -1.2589   61.7466 C.3     1  ZINC000915315870    0.0300
      2 O2         -8.9582   -2.3695   60.8622 O.3     1  ZINC000915315870   -0.3200
      3 C3         -9.9801   -2.6296   60.0031 C.ar    1  ZINC000915315870    0.0800
      4 C4         -9.8843   -3.6861   59.1075 C.ar    1  ZINC000915315870    0.0900
      5 F5         -8.7757   -4.4580   59.0886 F       1  ZINC000915315870   -0.1100
      6 C6        -10.9257   -3.9481   58.2348 C.ar    1  ZINC000915315870   -0.0500
      7 C7        -12.0605   -3.1586   58.2536 C.ar    1  ZINC000915315870   -0.6300
      8 S8        -13.3841   -3.4951   57.1403 S.o2    1  ZINC000915315870    2.7000
      9 O9        -13.2486   -4.8563   56.7555 O.2     1  ZINC000915315870   -0.9400
     10 O10       -14.5591   -2.9713   57.7439 O.2     1  ZINC000915315870   -0.9400
     11 N11       -13.1180   -2.5948   55.7761 N.am    1  ZINC000915315870   -1.1100
     12 C12       -11.8937   -2.7914   54.9959 C.3     1  ZINC000915315870    0.2400
     13 H13       -11.2441   -3.5037   55.5045 H       1  ZINC000915315870    0.0900
     14 C14       -12.2487   -3.3198   53.6003 C.3     1  ZINC000915315870   -0.1400
     15 C15       -11.0061   -3.2951   52.7075 C.3     1  ZINC000915315870   -0.1100
     16 C16       -10.6563   -1.8462   52.3460 C.3     1  ZINC000915315870   -0.0400
     17 C17       -10.6140   -1.0392   53.6209 C.2     1  ZINC000915315870    0.0900
     18 N18       -10.0811    0.1317   53.8167 N.2     1  ZINC000915315870   -0.2900
     19 N19       -10.2832    0.4844   55.1597 N.pl3   1  ZINC000915315870   -0.3800
     20 C20        -9.8406    1.7253   55.8002 C.3     1  ZINC000915315870    0.1000
     21 C21       -10.9587   -0.5222   55.7586 C.2     1  ZINC000915315870    0.0800
     22 C22       -11.1765   -1.4740   54.8335 C.2     1  ZINC000915315870   -0.2500
     23 C23       -12.1592   -2.1061   59.1445 C.ar    1  ZINC000915315870   -0.0500
     24 C24       -11.1237   -1.8424   60.0238 C.ar    1  ZINC000915315870    0.1000
     25 F25       -11.2208   -0.8137   60.8941 F       1  ZINC000915315870   -0.1100
     26 H26        -8.2362   -1.1629   62.3759 H       1  ZINC000915315870    0.1100
     27 H27        -9.2533   -0.3471   61.1643 H       1  ZINC000915315870    0.0600
     28 H28        -9.9975   -1.4196   62.3742 H       1  ZINC000915315870    0.0500
     29 H29       -10.8517   -4.7698   57.5379 H       1  ZINC000915315870    0.1700
     30 H30       -13.7727   -1.9372   55.4936 H       1  ZINC000915315870    0.4200
     31 H31       -12.6160   -4.3428   53.6825 H       1  ZINC000915315870    0.0900
     32 H32       -13.0235   -2.6914   53.1609 H       1  ZINC000915315870    0.0800
     33 H33       -10.1692   -3.7484   53.2386 H       1  ZINC000915315870    0.0700
     34 H34       -11.2037   -3.8586   51.7956 H       1  ZINC000915315870    0.0800
     35 H35        -9.6824   -1.8140   51.8578 H       1  ZINC000915315870    0.0800
     36 H36       -11.4165   -1.4399   51.6787 H       1  ZINC000915315870    0.0900
     37 H37       -10.6210    2.4805   55.7073 H       1  ZINC000915315870    0.0800
     38 H38        -9.6399    1.5381   56.8551 H       1  ZINC000915315870    0.0900
     39 H39        -8.9317    2.0806   55.3148 H       1  ZINC000915315870    0.0900
     40 H40       -11.2676   -0.5560   56.7929 H       1  ZINC000915315870    0.1700
     41 H41       -13.0471   -1.4914   59.1571 H       1  ZINC000915315870    0.1700
@<TRIPOS>BOND
     1     1     2    1
     2     1    26    1
     3     1    27    1
     4     1    28    1
     5     2     3    1
     6     3    24   ar
     7     3     4   ar
     8     4     5    1
     9     4     6   ar
    10     6     7   ar
    11     6    29    1
    12     7     8    1
    13     7    23   ar
    14     8     9    2
    15     8    10    2
    16     8    11   am
    17    11    12    1
    18    11    30    1
    19    12    13    1
    20    12    22    1
    21    12    14    1
    22    14    15    1
    23    14    31    1
    24    14    32    1
    25    15    16    1
    26    15    33    1
    27    15    34    1
    28    16    17    1
    29    16    35    1
    30    16    36    1
    31    17    22    1
    32    17    18    2
    33    18    19    1
    34    19    20    1
    35    19    21    1
    36    20    37    1
    37    20    38    1
    38    20    39    1
    39    21    22    2
    40    21    40    1
    41    23    24   ar
    42    23    41    1
    43    24    25    1
@<TRIPOS>SUBSTRUCTURE
     1 ZINC000915315870        1 TEMP              0 ****  ****    0 ROOT


##########                                Name:    ZINC000053543817
##########                DOCK_Rotatable_Bonds:                   7
##########                         Heavy_Atoms:                  25
##########                    Molecular_Weight:             350.458
##########                DOCK_Rotatable_Bonds:                   7
##########                       Formal_Charge:           0.0199998
##########                     HBond_Acceptors:                   6
##########                        HBond_Donors:                   2
##########                         Heavy_Atoms:                  25
##########                          Grid_Score:          -32.028015
##########                     Grid_vdw_energy:          -31.191132
##########                      Grid_es_energy:           -0.836882
##########           Internal_energy_repulsive:           43.767197

@<TRIPOS>MOLECULE
ZINC000053543817
 55 56 1 0 0
SMALL
USER_CHARGES


@<TRIPOS>ATOM
      1 C1         -9.1938   -3.0218   59.9884 C.3     1  ZINC000053543817   -0.0700
      2 C2        -10.4669   -2.9777   59.1833 C.2     1  ZINC000053543817   -0.0200
      3 C3        -10.5701   -3.2102   57.8598 C.2     1  ZINC000053543817   -0.1800
      4 C4        -11.9296   -3.0639   57.5301 C.2     1  ZINC000053543817   -0.1900
      5 C5        -12.5837   -2.7513   58.6676 C.2     1  ZINC000053543817    0.0000
      6 C6        -14.0717   -2.5108   58.7441 C.3     1  ZINC000053543817   -0.0300
      7 C7        -14.7205   -3.0798   57.4767 C.3     1  ZINC000053543817   -0.0500
      8 C8        -14.6543   -4.6080   57.5122 C.3     1  ZINC000053543817   -0.1500
      9 C9        -16.1827   -2.6344   57.4086 C.3     1  ZINC000053543817   -0.1400
     10 C10       -13.9730   -2.5654   56.2433 C.3     1  ZINC000053543817   -0.1200
     11 C11       -12.5841   -3.2141   56.1816 C.3     1  ZINC000053543817    0.2200
     12 H12       -12.6835   -4.2717   55.9372 H       1  ZINC000053543817    0.1000
     13 N13       -11.7723   -2.5461   55.1614 N.am    1  ZINC000053543817   -0.7100
     14 C14       -11.7107   -3.0499   53.9129 C.2     1  ZINC000053543817    0.5100
     15 O15       -12.3261   -4.0572   53.6344 O.2     1  ZINC000053543817   -0.5300
     16 C16       -10.8770   -2.3617   52.8630 C.3     1  ZINC000053543817    0.1400
     17 H17        -9.9825   -2.9520   52.6646 H       1  ZINC000053543817    0.1200
     18 C18       -10.4716   -0.9737   53.3627 C.3     1  ZINC000053543817   -0.1600
     19 N19       -11.6573   -2.2281   51.6301 N.am    1  ZINC000053543817   -0.7000
     20 C20       -12.9059   -1.7226   51.6743 C.2     1  ZINC000053543817    0.6600
     21 O21       -13.3850   -1.3790   52.7368 O.2     1  ZINC000053543817   -0.5700
     22 O22       -13.6222   -1.5984   50.5412 O.3     1  ZINC000053543817   -0.3600
     23 C23       -14.9595   -1.0461   50.6639 C.3     1  ZINC000053543817    0.1400
     24 C24       -15.6142   -0.9836   49.2825 C.3     1  ZINC000053543817   -0.1800
     25 C25       -15.7963   -1.9361   51.5851 C.3     1  ZINC000053543817   -0.1400
     26 C26       -14.8771    0.3634   51.2534 C.3     1  ZINC000053543817   -0.1800
     27 O27       -11.6928   -2.7052   59.6653 O.3     1  ZINC000053543817   -0.1700
     28 H28        -9.4157   -2.7972   61.0317 H       1  ZINC000053543817    0.0800
     29 H29        -8.7528   -4.0160   59.9168 H       1  ZINC000053543817    0.0800
     30 H30        -8.4920   -2.2840   59.5993 H       1  ZINC000053543817    0.0800
     31 H31        -9.7656   -3.4598   57.1840 H       1  ZINC000053543817    0.1400
     32 H32       -14.4793   -3.0128   59.6215 H       1  ZINC000053543817    0.0900
     33 H33       -14.2670   -1.4403   58.8068 H       1  ZINC000053543817    0.0900
     34 H34       -15.1875   -4.9744   58.3894 H       1  ZINC000053543817    0.0600
     35 H35       -15.1155   -5.0127   56.6113 H       1  ZINC000053543817    0.0600
     36 H36       -13.6128   -4.9254   57.5612 H       1  ZINC000053543817    0.0600
     37 H37       -16.2302   -1.5458   57.3838 H       1  ZINC000053543817    0.0600
     38 H38       -16.6442   -3.0388   56.5077 H       1  ZINC000053543817    0.0600
     39 H39       -16.7155   -3.0015   58.2859 H       1  ZINC000053543817    0.0600
     40 H40       -14.5342   -2.8220   55.3448 H       1  ZINC000053543817    0.0800
     41 H41       -13.8661   -1.4826   56.3085 H       1  ZINC000053543817    0.0700
     42 H42       -11.2792   -1.7411   55.3845 H       1  ZINC000053543817    0.4000
     43 H43        -9.8912   -1.0730   54.2800 H       1  ZINC000053543817    0.0800
     44 H44        -9.8687   -0.4758   52.6033 H       1  ZINC000053543817    0.0800
     45 H45       -11.3662   -0.3833   53.5610 H       1  ZINC000053543817    0.0700
     46 H46       -11.2752   -2.5034   50.7822 H       1  ZINC000053543817    0.4200
     47 H47       -15.6730   -1.9877   48.8625 H       1  ZINC000053543817    0.0600
     48 H48       -16.6181   -0.5690   49.3745 H       1  ZINC000053543817    0.0700
     49 H49       -15.0180   -0.3495   48.6262 H       1  ZINC000053543817    0.0900
     50 H50       -15.3299   -1.9805   52.5692 H       1  ZINC000053543817    0.0700
     51 H51       -16.8002   -1.5214   51.6772 H       1  ZINC000053543817    0.0800
     52 H52       -15.8550   -2.9402   51.1651 H       1  ZINC000053543817    0.0700
     53 H53       -14.2809    0.9974   50.5972 H       1  ZINC000053543817    0.0900
     54 H54       -15.8809    0.7780   51.3456 H       1  ZINC000053543817    0.0700
     55 H55       -14.4106    0.3188   52.2375 H       1  ZINC000053543817    0.0600
@<TRIPOS>BOND
     1     1     2    1
     2     1    28    1
     3     1    29    1
     4     1    30    1
     5     2    27    1
     6     2     3    2
     7     3     4    1
     8     3    31    1
     9     4    11    1
    10     4     5    2
    11     5     6    1
    12     5    27    1
    13     6     7    1
    14     6    32    1
    15     6    33    1
    16     7     8    1
    17     7     9    1
    18     7    10    1
    19     8    34    1
    20     8    35    1
    21     8    36    1
    22     9    37    1
    23     9    38    1
    24     9    39    1
    25    10    11    1
    26    10    40    1
    27    10    41    1
    28    11    12    1
    29    11    13    1
    30    13    14   am
    31    13    42    1
    32    14    15    2
    33    14    16    1
    34    16    17    1
    35    16    18    1
    36    16    19    1
    37    18    43    1
    38    18    44    1
    39    18    45    1
    40    19    20   am
    41    19    46    1
    42    20    21    2
    43    20    22    1
    44    22    23    1
    45    23    24    1
    46    23    25    1
    47    23    26    1
    48    24    47    1
    49    24    48    1
    50    24    49    1
    51    25    50    1
    52    25    51    1
    53    25    52    1
    54    26    53    1
    55    26    54    1
    56    26    55    1
@<TRIPOS>SUBSTRUCTURE
     1 ZINC000053543817        1 TEMP              0 ****  ****    0 ROOT


##########                                Name:    ZINC000534890536
##########                DOCK_Rotatable_Bonds:                   6
##########                         Heavy_Atoms:                  30
##########                    Molecular_Weight:             411.476
##########                DOCK_Rotatable_Bonds:                   6
##########                       Formal_Charge:          0.00999957
##########                     HBond_Acceptors:                   7
##########                        HBond_Donors:                   1
##########                         Heavy_Atoms:                  30
##########                          Grid_Score:          -32.018070
##########                     Grid_vdw_energy:          -31.898088
##########                      Grid_es_energy:           -0.119981
##########           Internal_energy_repulsive:           13.754702

@<TRIPOS>MOLECULE
ZINC000534890536
 56 59 1 0 0
SMALL
USER_CHARGES


@<TRIPOS>ATOM
      1 C1         -2.6604    1.9423   62.9843 C.3     1  ZINC000534890536    0.0300
      2 O2         -2.8813    3.1176   62.2019 O.3     1  ZINC000534890536   -0.3200
      3 C3         -2.5200    3.0642   60.8929 C.ar    1  ZINC000534890536    0.1300
      4 C4         -1.9686    1.9031   60.3710 C.ar    1  ZINC000534890536   -0.2100
      5 C5         -1.6026    1.8512   59.0400 C.ar    1  ZINC000534890536   -0.0700
      6 C6         -1.7851    2.9554   58.2281 C.ar    1  ZINC000534890536   -0.1100
      7 C7         -1.3844    2.8963   56.7765 C.3     1  ZINC000534890536   -0.0600
      8 H8         -0.9638    1.9218   56.5288 H       1  ZINC000534890536    0.0900
      9 C9         -0.3913    4.0360   56.4268 C.3     1  ZINC000534890536   -0.1200
     10 C10        -0.6312    4.2524   54.9178 C.3     1  ZINC000534890536    0.1000
     11 N11        -1.9728    3.7355   54.6105 N.am    1  ZINC000534890536   -0.6400
     12 C12        -2.5489    3.7210   53.3920 C.2     1  ZINC000534890536    0.7300
     13 O13        -1.9487    4.1608   52.4305 O.2     1  ZINC000534890536   -0.5700
     14 N14        -3.7902    3.2188   53.2395 N.am    1  ZINC000534890536   -0.7300
     15 C15        -4.4170    3.2045   51.9154 C.3     1  ZINC000534890536    0.1600
     16 H16        -4.1771    4.1295   51.3912 H       1  ZINC000534890536    0.1200
     17 C17        -3.8857    2.0134   51.1142 C.3     1  ZINC000534890536   -0.1300
     18 C18        -4.7449    1.8550   49.8540 C.3     1  ZINC000534890536   -0.1300
     19 C19        -6.1511    1.4231   50.2712 C.3     1  ZINC000534890536    0.1100
     20 N20        -6.6684    2.3049   51.3101 N.am    1  ZINC000534890536   -0.5600
     21 C21        -8.0523    2.3259   51.5241 C.ar    1  ZINC000534890536    0.1000
     22 C22        -8.8316    3.3138   50.9390 C.ar    1  ZINC000534890536   -0.0800
     23 C23       -10.1969    3.3318   51.1514 C.ar    1  ZINC000534890536   -0.1200
     24 C24       -10.7879    2.3676   51.9464 C.ar    1  ZINC000534890536   -0.0800
     25 C25       -10.0155    1.3808   52.5319 C.ar    1  ZINC000534890536   -0.1500
     26 C26        -8.6496    1.3533   52.3190 C.ar    1  ZINC000534890536    0.1100
     27 F27        -7.8950    0.3894   52.8904 F       1  ZINC000534890536   -0.1300
     28 C28        -5.9065    3.0905   52.0698 C.2     1  ZINC000534890536    0.5000
     29 O29        -6.4447    3.7522   52.9322 O.2     1  ZINC000534890536   -0.5100
     30 C30        -2.5834    3.2338   55.8554 C.3     1  ZINC000534890536    0.1300
     31 C31        -2.3349    4.1138   58.7457 C.ar    1  ZINC000534890536   -0.0700
     32 C32        -2.7073    4.1690   60.0748 C.ar    1  ZINC000534890536   -0.1500
     33 H33        -3.2231    1.1114   62.5587 H       1  ZINC000534890536    0.0600
     34 H34        -1.5977    1.6996   62.9834 H       1  ZINC000534890536    0.0600
     35 H35        -2.9918    2.1194   64.0075 H       1  ZINC000534890536    0.1000
     36 H36        -1.8252    1.0405   61.0049 H       1  ZINC000534890536    0.1300
     37 H37        -1.1733    0.9475   58.6331 H       1  ZINC000534890536    0.1300
     38 H38        -0.6280    4.9396   56.9884 H       1  ZINC000534890536    0.0800
     39 H39         0.6360    3.7229   56.6130 H       1  ZINC000534890536    0.0900
     40 H40        -0.5809    5.3157   54.6832 H       1  ZINC000534890536    0.0700
     41 H41         0.1169    3.7079   54.3416 H       1  ZINC000534890536    0.0700
     42 H42        -4.2686    2.8666   54.0064 H       1  ZINC000534890536    0.4000
     43 H43        -2.8488    2.1948   50.8310 H       1  ZINC000534890536    0.0900
     44 H44        -3.9487    1.1077   51.7175 H       1  ZINC000534890536    0.0800
     45 H45        -4.7964    2.8064   49.3246 H       1  ZINC000534890536    0.0800
     46 H46        -4.3066    1.0964   49.2055 H       1  ZINC000534890536    0.1000
     47 H47        -6.8116    1.4608   49.4049 H       1  ZINC000534890536    0.0800
     48 H48        -6.1168    0.4016   50.6499 H       1  ZINC000534890536    0.0700
     49 H49        -8.3714    4.0682   50.3182 H       1  ZINC000534890536    0.1300
     50 H50       -10.8033    4.1007   50.6960 H       1  ZINC000534890536    0.1300
     51 H51       -11.8551    2.3850   52.1110 H       1  ZINC000534890536    0.1400
     52 H52       -10.4802    0.6289   53.1524 H       1  ZINC000534890536    0.1400
     53 H53        -3.1729    2.3391   55.6551 H       1  ZINC000534890536    0.0800
     54 H54        -3.2053    4.0048   56.3105 H       1  ZINC000534890536    0.0700
     55 H55        -2.4766    4.9748   58.1094 H       1  ZINC000534890536    0.1300
     56 H56        -3.1367    5.0739   60.4787 H       1  ZINC000534890536    0.1300
@<TRIPOS>BOND
     1     1     2    1
     2     1    33    1
     3     1    34    1
     4     1    35    1
     5     2     3    1
     6     3    32   ar
     7     3     4   ar
     8     4     5   ar
     9     4    36    1
    10     5     6   ar
    11     5    37    1
    12     6     7    1
    13     6    31   ar
    14     7     8    1
    15     7    30    1
    16     7     9    1
    17     9    10    1
    18     9    38    1
    19     9    39    1
    20    10    11    1
    21    10    40    1
    22    10    41    1
    23    11    12   am
    24    11    30    1
    25    12    13    2
    26    12    14   am
    27    14    15    1
    28    14    42    1
    29    15    16    1
    30    15    28    1
    31    15    17    1
    32    17    18    1
    33    17    43    1
    34    17    44    1
    35    18    19    1
    36    18    45    1
    37    18    46    1
    38    19    20    1
    39    19    47    1
    40    19    48    1
    41    20    21    1
    42    20    28   am
    43    21    26   ar
    44    21    22   ar
    45    22    23   ar
    46    22    49    1
    47    23    24   ar
    48    23    50    1
    49    24    25   ar
    50    24    51    1
    51    25    26   ar
    52    25    52    1
    53    26    27    1
    54    28    29    2
    55    30    53    1
    56    30    54    1
    57    31    32   ar
    58    31    55    1
    59    32    56    1
@<TRIPOS>SUBSTRUCTURE
     1 ZINC000534890536        1 TEMP              0 ****  ****    0 ROOT


##########                                Name:    ZINC000867639366
##########                DOCK_Rotatable_Bonds:                   6
##########                         Heavy_Atoms:                  25
##########                    Molecular_Weight:             388.509
##########                DOCK_Rotatable_Bonds:                   6
##########                       Formal_Charge:          0.00999961
##########                     HBond_Acceptors:                   9
##########                        HBond_Donors:                   1
##########                         Heavy_Atoms:                  25
##########                          Grid_Score:          -32.016705
##########                     Grid_vdw_energy:          -29.378958
##########                      Grid_es_energy:           -2.637748
##########           Internal_energy_repulsive:           40.112190

@<TRIPOS>MOLECULE
ZINC000867639366
 49 51 1 0 0
SMALL
USER_CHARGES


@<TRIPOS>ATOM
      1 C1        -13.6368    1.5539   54.6338 C.3     1  ZINC000867639366    0.0300
      2 O2        -12.2638    1.6215   54.2436 O.3     1  ZINC000867639366   -0.3800
      3 C3        -11.7215    0.3736   53.8068 C.3     1  ZINC000867639366    0.0800
      4 H4        -12.5342   -0.3119   53.5665 H       1  ZINC000867639366    0.0800
      5 C5        -10.8595   -0.2264   54.9199 C.3     1  ZINC000867639366   -0.1400
      6 C6         -9.7380    0.7501   55.2814 C.3     1  ZINC000867639366   -0.1200
      7 C7         -8.8510    0.9800   54.0537 C.3     1  ZINC000867639366    0.1500
      8 H8         -8.3471    0.0509   53.7879 H       1  ZINC000867639366    0.0800
      9 C9         -7.8100    2.0566   54.3673 C.3     1  ZINC000867639366   -0.1900
     10 N10        -9.6965    1.4193   52.9352 N.am    1  ZINC000867639366   -0.9800
     11 S11        -9.3474    2.8120   52.1100 S.o2    1  ZINC000867639366    2.6900
     12 O12       -10.2500    2.8659   51.0138 O.2     1  ZINC000867639366   -0.9500
     13 O13        -9.2459    3.8411   53.0845 O.2     1  ZINC000867639366   -0.9400
     14 C14        -7.7376    2.6198   51.4199 C.ar    1  ZINC000867639366   -0.6300
     15 C15        -6.9652    3.7333   51.1470 C.ar    1  ZINC000867639366   -0.0500
     16 C16        -5.7022    3.5826   50.6056 C.ar    1  ZINC000867639366   -0.0400
     17 C17        -5.2114    2.3184   50.3375 C.ar    1  ZINC000867639366   -0.6300
     18 S18        -3.6019    2.1263   49.6469 S.o2    1  ZINC000867639366    2.7000
     19 O19        -2.9975    1.0392   50.3340 O.2     1  ZINC000867639366   -0.9400
     20 O20        -3.7642    2.1599   48.2356 O.2     1  ZINC000867639366   -0.9500
     21 N21        -2.7312    3.4761   50.0498 N.am    1  ZINC000867639366   -1.0800
     22 C22        -2.5125    3.8132   51.4585 C.3     1  ZINC000867639366    0.0800
     23 C23        -1.1053    3.6090   52.0236 C.3     1  ZINC000867639366   -0.1800
     24 C24        -1.6287    5.0236   51.7664 C.3     1  ZINC000867639366   -0.1900
     25 C25        -5.9833    1.2049   50.6118 C.ar    1  ZINC000867639366   -0.0400
     26 C26        -7.2447    1.3554   51.1568 C.ar    1  ZINC000867639366   -0.0400
     27 C27       -10.8578    0.5991   52.5619 C.3     1  ZINC000867639366    0.1200
     28 H28       -14.2386    1.2200   53.7887 H       1  ZINC000867639366    0.0400
     29 H29       -13.7459    0.8496   55.4585 H       1  ZINC000867639366    0.0400
     30 H30       -13.9730    2.5408   54.9520 H       1  ZINC000867639366    0.0900
     31 H31       -11.4777   -0.4108   55.7985 H       1  ZINC000867639366    0.0700
     32 H32       -10.4263   -1.1661   54.5772 H       1  ZINC000867639366    0.0700
     33 H33       -10.1702    1.6985   55.6007 H       1  ZINC000867639366    0.0800
     34 H34        -9.1384    0.3324   56.0902 H       1  ZINC000867639366    0.0800
     35 H35        -7.1059    1.6765   55.1075 H       1  ZINC000867639366    0.0700
     36 H36        -7.2729    2.3189   53.4559 H       1  ZINC000867639366    0.0600
     37 H37        -8.3098    2.9412   54.7619 H       1  ZINC000867639366    0.1000
     38 H38        -7.3486    4.7210   51.3563 H       1  ZINC000867639366    0.1600
     39 H39        -5.0990    4.4526   50.3916 H       1  ZINC000867639366    0.1500
     40 H40        -2.3661    4.0436   49.3530 H       1  ZINC000867639366    0.4200
     41 H41        -3.3548    3.6229   52.1238 H       1  ZINC000867639366    0.1400
     42 H42        -1.0216    3.2841   53.0606 H       1  ZINC000867639366    0.1100
     43 H43        -0.3424    3.2239   51.3470 H       1  ZINC000867639366    0.1000
     44 H44        -1.2100    5.5691   50.9207 H       1  ZINC000867639366    0.1000
     45 H45        -1.8893    5.6293   52.6342 H       1  ZINC000867639366    0.1000
     46 H46        -5.5997    0.2172   50.4027 H       1  ZINC000867639366    0.1500
     47 H47        -7.8478    0.4855   51.3710 H       1  ZINC000867639366    0.1500
     48 H48       -10.5175   -0.3612   52.1744 H       1  ZINC000867639366    0.0900
     49 H49       -11.4412    1.1167   51.8005 H       1  ZINC000867639366    0.1000
@<TRIPOS>BOND
     1     1     2    1
     2     1    28    1
     3     1    29    1
     4     1    30    1
     5     2     3    1
     6     3     4    1
     7     3    27    1
     8     3     5    1
     9     5     6    1
    10     5    31    1
    11     5    32    1
    12     6     7    1
    13     6    33    1
    14     6    34    1
    15     7     8    1
    16     7     9    1
    17     7    10    1
    18     9    35    1
    19     9    36    1
    20     9    37    1
    21    10    11   am
    22    10    27    1
    23    11    12    2
    24    11    13    2
    25    11    14    1
    26    14    26   ar
    27    14    15   ar
    28    15    16   ar
    29    15    38    1
    30    16    17   ar
    31    16    39    1
    32    17    18    1
    33    17    25   ar
    34    18    19    2
    35    18    20    2
    36    18    21   am
    37    21    22    1
    38    21    40    1
    39    22    24    1
    40    22    23    1
    41    22    41    1
    42    23    24    1
    43    23    42    1
    44    23    43    1
    45    24    44    1
    46    24    45    1
    47    25    26   ar
    48    25    46    1
    49    26    47    1
    50    27    48    1
    51    27    49    1
@<TRIPOS>SUBSTRUCTURE
     1 ZINC000867639366        1 TEMP              0 ****  ****    0 ROOT


##########                                Name:    ZINC000089894387
##########                DOCK_Rotatable_Bonds:                   8
##########                         Heavy_Atoms:                  22
##########                    Molecular_Weight:             326.823
##########                DOCK_Rotatable_Bonds:                   8
##########                       Formal_Charge:          -0.0300003
##########                     HBond_Acceptors:                   6
##########                        HBond_Donors:                   2
##########                         Heavy_Atoms:                  22
##########                          Grid_Score:          -32.013355
##########                     Grid_vdw_energy:          -30.281853
##########                      Grid_es_energy:           -1.731502
##########           Internal_energy_repulsive:           15.643994

@<TRIPOS>MOLECULE
ZINC000089894387
 45 46 1 0 0
SMALL
USER_CHARGES


@<TRIPOS>ATOM
      1 C1          2.8579    4.6364   46.2969 C.3     1  ZINC000089894387   -0.1700
      2 C2          2.5610    3.2425   46.8536 C.3     1  ZINC000089894387    0.1700
      3 H3          3.2662    3.0124   47.6522 H       1  ZINC000089894387    0.0900
      4 N4          1.1955    3.2090   47.3831 N.am    1  ZINC000089894387   -0.7400
      5 C5          0.9453    2.6103   48.5644 C.2     1  ZINC000089894387    0.7100
      6 O6          1.8527    2.0968   49.1900 O.2     1  ZINC000089894387   -0.5900
      7 N7         -0.3107    2.5808   49.0524 N.am    1  ZINC000089894387   -0.7500
      8 C8         -0.5823    1.9316   50.3373 C.3     1  ZINC000089894387    0.1400
      9 C9         -2.0318    2.1990   50.7474 C.3     1  ZINC000089894387    0.0500
     10 O10        -2.9142    1.5928   49.8008 O.3     1  ZINC000089894387   -0.3100
     11 C11        -4.2244    1.5005   50.1498 C.ar    1  ZINC000089894387    0.1400
     12 C12        -4.8800    0.2805   50.0709 C.ar    1  ZINC000089894387   -0.2100
     13 C13        -6.2121    0.1886   50.4261 C.ar    1  ZINC000089894387   -0.0700
     14 C14        -6.8923    1.3110   50.8601 C.ar    1  ZINC000089894387   -0.1500
     15 C15        -6.2410    2.5298   50.9395 C.ar    1  ZINC000089894387    0.0000
     16 Cl16       -7.0980    3.9375   51.4848 Cl      1  ZINC000089894387   -0.0600
     17 C17        -4.9066    2.6251   50.5909 C.ar    1  ZINC000089894387   -0.1500
     18 C18         2.7003    2.2068   45.7362 C.3     1  ZINC000089894387   -0.1000
     19 C19         3.9633    2.4996   44.9206 C.3     1  ZINC000089894387   -0.1600
     20 C20         4.1368    1.4136   43.8555 C.3     1  ZINC000089894387    0.0600
     21 O21         4.2041    0.1341   44.4883 O.3     1  ZINC000089894387   -0.3800
     22 C22         3.0312   -0.2141   45.2266 C.3     1  ZINC000089894387    0.0600
     23 C23         2.8133    0.8064   46.3468 C.3     1  ZINC000089894387   -0.1500
     24 H24         2.1528    4.8665   45.4982 H       1  ZINC000089894387    0.0600
     25 H25         2.7587    5.3743   47.0929 H       1  ZINC000089894387    0.0600
     26 H26         3.8739    4.6614   45.9029 H       1  ZINC000089894387    0.0700
     27 H27         0.4713    3.6176   46.8834 H       1  ZINC000089894387    0.3900
     28 H28        -1.0348    2.9894   48.5527 H       1  ZINC000089894387    0.4000
     29 H29        -0.4238    0.8575   50.2423 H       1  ZINC000089894387    0.0800
     30 H30         0.0897    2.3325   51.0961 H       1  ZINC000089894387    0.0900
     31 H31        -2.2137    1.7766   51.7357 H       1  ZINC000089894387    0.0900
     32 H32        -2.2099    3.2741   50.7733 H       1  ZINC000089894387    0.0700
     33 H33        -4.3495   -0.5968   49.7316 H       1  ZINC000089894387    0.1300
     34 H34        -6.7225   -0.7611   50.3643 H       1  ZINC000089894387    0.1400
     35 H35        -7.9334    1.2370   51.1372 H       1  ZINC000089894387    0.1400
     36 H36        -4.3983    3.5759   50.6532 H       1  ZINC000089894387    0.1400
     37 H37         1.8263    2.2517   45.0863 H       1  ZINC000089894387    0.0800
     38 H38         3.8676    3.4719   44.4373 H       1  ZINC000089894387    0.0700
     39 H39         4.8305    2.5039   45.5810 H       1  ZINC000089894387    0.0800
     40 H40         3.2886    1.4367   43.1714 H       1  ZINC000089894387    0.0500
     41 H41         5.0572    1.5932   43.2998 H       1  ZINC000089894387    0.0900
     42 H42         2.1684   -0.2124   44.5603 H       1  ZINC000089894387    0.0500
     43 H43         3.1550   -1.2071   45.6585 H       1  ZINC000089894387    0.1000
     44 H44         3.6572    0.7766   47.0359 H       1  ZINC000089894387    0.0800
     45 H45         1.8950    0.5678   46.8834 H       1  ZINC000089894387    0.0800
@<TRIPOS>BOND
     1     1     2    1
     2     1    24    1
     3     1    25    1
     4     1    26    1
     5     2     3    1
     6     2     4    1
     7     2    18    1
     8     4     5   am
     9     4    27    1
    10     5     6    2
    11     5     7   am
    12     7     8    1
    13     7    28    1
    14     8     9    1
    15     8    29    1
    16     8    30    1
    17     9    10    1
    18     9    31    1
    19     9    32    1
    20    10    11    1
    21    11    17   ar
    22    11    12   ar
    23    12    13   ar
    24    12    33    1
    25    13    14   ar
    26    13    34    1
    27    14    15   ar
    28    14    35    1
    29    15    16    1
    30    15    17   ar
    31    17    36    1
    32    18    23    1
    33    18    19    1
    34    18    37    1
    35    19    20    1
    36    19    38    1
    37    19    39    1
    38    20    21    1
    39    20    40    1
    40    20    41    1
    41    21    22    1
    42    22    23    1
    43    22    42    1
    44    22    43    1
    45    23    44    1
    46    23    45    1
@<TRIPOS>SUBSTRUCTURE
     1 ZINC000089894387        1 TEMP              0 ****  ****    0 ROOT


##########                                Name:    ZINC000464752079
##########                DOCK_Rotatable_Bonds:                   7
##########                         Heavy_Atoms:                  29
##########                    Molecular_Weight:             404.413
##########                DOCK_Rotatable_Bonds:                   7
##########                       Formal_Charge:         7.45058e-08
##########                     HBond_Acceptors:                   8
##########                        HBond_Donors:                   1
##########                         Heavy_Atoms:                  29
##########                          Grid_Score:          -31.999660
##########                     Grid_vdw_energy:          -32.054184
##########                      Grid_es_energy:            0.054524
##########           Internal_energy_repulsive:           18.287636

@<TRIPOS>MOLECULE
ZINC000464752079
 51 54 1 0 0
SMALL
USER_CHARGES


@<TRIPOS>ATOM
      1 C1          0.4170    2.5304   56.2128 C.3     1  ZINC000464752079   -0.1200
      2 C2          0.1800    3.9087   55.6512 C.ar    1  ZINC000464752079   -0.0800
      3 C3          1.2527    4.6999   55.2860 C.ar    1  ZINC000464752079   -0.1200
      4 C4          1.0352    5.9644   54.7708 C.ar    1  ZINC000464752079   -0.1200
      5 C5         -0.2549    6.4371   54.6207 C.ar    1  ZINC000464752079   -0.1300
      6 C6         -1.3280    5.6452   54.9852 C.ar    1  ZINC000464752079   -0.0900
      7 C7         -1.1107    4.3794   55.4962 C.ar    1  ZINC000464752079   -0.0800
      8 C8         -2.2804    3.5164   55.8936 C.3     1  ZINC000464752079    0.2000
      9 H9         -2.0330    2.4654   55.7441 H       1  ZINC000464752079    0.0900
     10 C10        -2.6380    3.7660   57.3739 C.3     1  ZINC000464752079   -0.1200
     11 C11        -4.1887    3.7135   57.3706 C.3     1  ZINC000464752079   -0.1300
     12 C12        -4.5186    4.3557   56.0000 C.3     1  ZINC000464752079    0.1000
     13 N13        -3.4596    3.8716   55.0905 N.am    1  ZINC000464752079   -0.6300
     14 C14        -3.5589    3.7757   53.7498 C.2     1  ZINC000464752079    0.7200
     15 O15        -2.6196    3.3607   53.0988 O.2     1  ZINC000464752079   -0.5700
     16 N16        -4.6992    4.1401   53.1308 N.am    1  ZINC000464752079   -0.7400
     17 C17        -4.8077    4.0343   51.6737 C.3     1  ZINC000464752079    0.1900
     18 C18        -5.2474    2.6414   51.3026 C.ar    1  ZINC000464752079   -0.1200
     19 C19        -6.3062    2.0517   51.9672 C.ar    1  ZINC000464752079   -0.0500
     20 C20        -6.7124    0.7713   51.6288 C.ar    1  ZINC000464752079    0.0100
     21 C21        -6.0529    0.0779   50.6172 C.ar    1  ZINC000464752079    0.0800
     22 C22        -4.9927    0.6714   49.9516 C.ar    1  ZINC000464752079   -0.1800
     23 C23        -4.5927    1.9548   50.2908 C.ar    1  ZINC000464752079    0.1400
     24 O24        -3.5522    2.5374   49.6372 O.3     1  ZINC000464752079   -0.3100
     25 C25        -2.2546    1.9809   49.8573 C.3     1  ZINC000464752079    0.4100
     26 F26        -2.2405    1.2995   51.0791 F       1  ZINC000464752079   -0.2000
     27 F27        -1.9474    1.0904   48.8230 F       1  ZINC000464752079   -0.2000
     28 O28        -6.6364   -1.1480   50.4763 O.3     1  ZINC000464752079   -0.3000
     29 C29        -7.3924   -1.3554   51.6840 C.3     1  ZINC000464752079    0.2100
     30 O30        -7.7099   -0.0211   52.1221 O.3     1  ZINC000464752079   -0.3000
     31 H31         0.4452    1.8063   55.3985 H       1  ZINC000464752079    0.0700
     32 H32         1.3671    2.5140   56.7466 H       1  ZINC000464752079    0.0700
     33 H33        -0.3900    2.2741   56.8992 H       1  ZINC000464752079    0.0700
     34 H34         2.2608    4.3306   55.4032 H       1  ZINC000464752079    0.1200
     35 H35         1.8736    6.5829   54.4860 H       1  ZINC000464752079    0.1200
     36 H36        -0.4247    7.4251   54.2189 H       1  ZINC000464752079    0.1200
     37 H37        -2.3360    6.0146   54.8683 H       1  ZINC000464752079    0.1100
     38 H38        -2.2268    2.9803   58.0078 H       1  ZINC000464752079    0.0900
     39 H39        -2.2860    4.7462   57.6956 H       1  ZINC000464752079    0.0800
     40 H40        -4.5448    2.6843   57.4156 H       1  ZINC000464752079    0.0800
     41 H41        -4.6014    4.3044   58.1883 H       1  ZINC000464752079    0.0900
     42 H42        -5.4967    4.0243   55.6515 H       1  ZINC000464752079    0.0700
     43 H43        -4.4894    5.4428   56.0735 H       1  ZINC000464752079    0.0700
     44 H44        -5.4482    4.4723   53.6501 H       1  ZINC000464752079    0.4000
     45 H45        -5.5402    4.7552   51.3106 H       1  ZINC000464752079    0.0800
     46 H46        -3.8382    4.2419   51.2210 H       1  ZINC000464752079    0.0800
     47 H47        -6.8173    2.5899   52.7518 H       1  ZINC000464752079    0.1500
     48 H48        -4.4798    0.1354   49.1666 H       1  ZINC000464752079    0.1500
     49 H49        -1.5150    2.7814   49.8792 H       1  ZINC000464752079    0.1900
     50 H50        -8.3030   -1.9165   51.4743 H       1  ZINC000464752079    0.1400
     51 H51        -6.7877   -1.8700   52.4308 H       1  ZINC000464752079    0.0900
@<TRIPOS>BOND
     1     1     2    1
     2     1    31    1
     3     1    32    1
     4     1    33    1
     5     2     7   ar
     6     2     3   ar
     7     3     4   ar
     8     3    34    1
     9     4     5   ar
    10     4    35    1
    11     5     6   ar
    12     5    36    1
    13     6     7   ar
    14     6    37    1
    15     7     8    1
    16     8     9    1
    17     8    13    1
    18     8    10    1
    19    10    11    1
    20    10    38    1
    21    10    39    1
    22    11    12    1
    23    11    40    1
    24    11    41    1
    25    12    13    1
    26    12    42    1
    27    12    43    1
    28    13    14   am
    29    14    15    2
    30    14    16   am
    31    16    17    1
    32    16    44    1
    33    17    18    1
    34    17    45    1
    35    17    46    1
    36    18    23   ar
    37    18    19   ar
    38    19    20   ar
    39    19    47    1
    40    20    30    1
    41    20    21   ar
    42    21    22   ar
    43    21    28    1
    44    22    23   ar
    45    22    48    1
    46    23    24    1
    47    24    25    1
    48    25    26    1
    49    25    27    1
    50    25    49    1
    51    28    29    1
    52    29    30    1
    53    29    50    1
    54    29    51    1
@<TRIPOS>SUBSTRUCTURE
     1 ZINC000464752079        1 TEMP              0 ****  ****    0 ROOT


##########                                Name:    ZINC000971513996
##########                DOCK_Rotatable_Bonds:                   6
##########                         Heavy_Atoms:                  27
##########                    Molecular_Weight:             369.464
##########                DOCK_Rotatable_Bonds:                   6
##########                       Formal_Charge:          -0.0300002
##########                     HBond_Acceptors:                   6
##########                        HBond_Donors:                   1
##########                         Heavy_Atoms:                  27
##########                          Grid_Score:          -31.987703
##########                     Grid_vdw_energy:          -29.567646
##########                      Grid_es_energy:           -2.420058
##########           Internal_energy_repulsive:           17.001404

@<TRIPOS>MOLECULE
ZINC000971513996
 54 57 1 0 0
SMALL
USER_CHARGES


@<TRIPOS>ATOM
      1 C1        -10.9939   -2.6715   53.7307 C.3     1  ZINC000971513996   -0.1600
      2 C2        -10.8367   -1.3168   53.0370 C.3     1  ZINC000971513996   -0.1400
      3 C3        -12.0583   -0.4457   53.3366 C.3     1  ZINC000971513996    0.0800
      4 H4        -12.7729   -0.5281   52.5176 H       1  ZINC000971513996    0.0800
      5 O5        -12.6714   -0.8860   54.5499 O.3     1  ZINC000971513996   -0.3600
      6 C6        -13.9990   -0.3933   54.7424 C.3     1  ZINC000971513996    0.0200
      7 C7        -11.6270    0.9907   53.4843 C.2     1  ZINC000971513996    0.5400
      8 O8        -11.8664    1.7894   52.6036 O.2     1  ZINC000971513996   -0.5100
      9 N9        -10.9751    1.3878   54.5950 N.am    1  ZINC000971513996   -0.6400
     10 C10       -10.5099    0.7601   55.8436 C.3     1  ZINC000971513996    0.1000
     11 C11        -9.3859    1.8134   55.8785 C.3     1  ZINC000971513996   -0.1200
     12 H12        -9.1425    2.1958   56.8698 H       1  ZINC000971513996    0.1100
     13 C13        -8.1661    1.3551   55.0755 C.3     1  ZINC000971513996   -0.1200
     14 C14        -7.5580    2.5596   54.3509 C.3     1  ZINC000971513996    0.1100
     15 N15        -8.5860    3.1397   53.4827 N.am    1  ZINC000971513996   -0.6000
     16 C16        -8.3484    3.2738   52.1628 C.2     1  ZINC000971513996    0.5900
     17 O17        -9.1984    3.7549   51.4376 O.2     1  ZINC000971513996   -0.5200
     18 C18        -7.0617    2.8385   51.5992 C.2     1  ZINC000971513996    0.0200
     19 C19        -5.9398    3.6004   51.5172 C.2     1  ZINC000971513996   -0.1000
     20 C20        -4.9277    2.8141   50.9153 C.ar    1  ZINC000971513996   -0.1100
     21 C21        -3.5902    3.0599   50.5802 C.ar    1  ZINC000971513996   -0.0600
     22 C22        -2.8460    2.0782   49.9930 C.ar    1  ZINC000971513996   -0.1200
     23 C23        -1.4072    2.3460   49.6337 C.3     1  ZINC000971513996   -0.1100
     24 C24        -3.4022    0.8342   49.7239 C.ar    1  ZINC000971513996   -0.0800
     25 C25        -4.7149    0.5681   50.0440 C.ar    1  ZINC000971513996   -0.1300
     26 C26        -5.4944    1.5533   50.6431 C.ar    1  ZINC000971513996    0.1100
     27 N27        -6.7994    1.5877   51.0745 N.pl3   1  ZINC000971513996   -0.5800
     28 C28        -9.8629    3.5726   54.0348 C.3     1  ZINC000971513996    0.0700
     29 C29       -10.4035    2.6370   55.1031 C.3     1  ZINC000971513996    0.1300
     30 H30       -11.0990    3.1530   55.7650 H       1  ZINC000971513996    0.1100
     31 H31       -10.1764   -3.3286   53.4340 H       1  ZINC000971513996    0.0600
     32 H32       -10.9732   -2.5310   54.8114 H       1  ZINC000971513996    0.0600
     33 H33       -11.9441   -3.1201   53.4407 H       1  ZINC000971513996    0.0600
     34 H34        -9.9383   -0.8219   53.4059 H       1  ZINC000971513996    0.0800
     35 H35       -10.7529   -1.4672   51.9607 H       1  ZINC000971513996    0.0800
     36 H36       -13.9703    0.6893   54.8658 H       1  ZINC000971513996    0.0400
     37 H37       -14.6090   -0.6441   53.8748 H       1  ZINC000971513996    0.0500
     38 H38       -14.4300   -0.8492   55.6338 H       1  ZINC000971513996    0.0900
     39 H39       -11.2181    0.8521   56.6671 H       1  ZINC000971513996    0.0900
     40 H40       -10.1472   -0.2590   55.7096 H       1  ZINC000971513996    0.0800
     41 H41        -7.4264    0.9248   55.7506 H       1  ZINC000971513996    0.0900
     42 H42        -8.4718    0.6067   54.3442 H       1  ZINC000971513996    0.0700
     43 H43        -7.2317    3.3009   55.0804 H       1  ZINC000971513996    0.0800
     44 H44        -6.7084    2.2362   53.7495 H       1  ZINC000971513996    0.1000
     45 H45        -5.8382    4.6225   51.8511 H       1  ZINC000971513996    0.1500
     46 H46        -3.1490    4.0240   50.7855 H       1  ZINC000971513996    0.1200
     47 H47        -0.7669    2.0784   50.4743 H       1  ZINC000971513996    0.0700
     48 H48        -1.1328    1.7494   48.7636 H       1  ZINC000971513996    0.0600
     49 H49        -1.2811    3.4039   49.4033 H       1  ZINC000971513996    0.0600
     50 H50        -2.7994    0.0682   49.2588 H       1  ZINC000971513996    0.1300
     51 H51        -5.1384   -0.4022   49.8304 H       1  ZINC000971513996    0.1200
     52 H52        -7.4322    0.8547   51.0187 H       1  ZINC000971513996    0.4200
     53 H53        -9.7364    4.5594   54.4803 H       1  ZINC000971513996    0.0800
     54 H54       -10.5888    3.6460   53.2249 H       1  ZINC000971513996    0.1200
@<TRIPOS>BOND
     1     1     2    1
     2     1    31    1
     3     1    32    1
     4     1    33    1
     5     2     3    1
     6     2    34    1
     7     2    35    1
     8     3     4    1
     9     3     5    1
    10     3     7    1
    11     5     6    1
    12     6    36    1
    13     6    37    1
    14     6    38    1
    15     7     8    2
    16     7     9   am
    17     9    29    1
    18     9    10    1
    19    10    11    1
    20    10    39    1
    21    10    40    1
    22    11    12    1
    23    11    29    1
    24    11    13    1
    25    13    14    1
    26    13    41    1
    27    13    42    1
    28    14    15    1
    29    14    43    1
    30    14    44    1
    31    15    16   am
    32    15    28    1
    33    16    17    2
    34    16    18    1
    35    18    27    1
    36    18    19    2
    37    19    20    1
    38    19    45    1
    39    20    26   ar
    40    20    21   ar
    41    21    22   ar
    42    21    46    1
    43    22    23    1
    44    22    24   ar
    45    23    47    1
    46    23    48    1
    47    23    49    1
    48    24    25   ar
    49    24    50    1
    50    25    26   ar
    51    25    51    1
    52    26    27    1
    53    27    52    1
    54    28    29    1
    55    28    53    1
    56    28    54    1
    57    29    30    1
@<TRIPOS>SUBSTRUCTURE
     1 ZINC000971513996        1 TEMP              0 ****  ****    0 ROOT


##########                                Name:    ZINC000188380122
##########                DOCK_Rotatable_Bonds:                   6
##########                         Heavy_Atoms:                  27
##########                    Molecular_Weight:             396.433
##########                DOCK_Rotatable_Bonds:                   6
##########                       Formal_Charge:           0.0299998
##########                     HBond_Acceptors:                   8
##########                        HBond_Donors:                   1
##########                         Heavy_Atoms:                  27
##########                          Grid_Score:          -31.987028
##########                     Grid_vdw_energy:          -30.893162
##########                      Grid_es_energy:           -1.093867
##########           Internal_energy_repulsive:           10.803284

@<TRIPOS>MOLECULE
ZINC000188380122
 46 49 1 0 0
SMALL
USER_CHARGES


@<TRIPOS>ATOM
      1 O1         -2.3898    1.1630   50.7039 O.2     1  ZINC000188380122   -0.5200
      2 C2         -2.5702    2.1815   50.0705 C.2     1  ZINC000188380122    0.5200
      3 C3         -3.7989    2.3259   49.2100 C.3     1  ZINC000188380122   -0.0700
      4 C4         -4.9657    1.6497   49.8828 C.2     1  ZINC000188380122    0.0900
      5 C5         -5.0668    0.3185   49.9603 C.2     1  ZINC000188380122   -0.2400
      6 S6         -6.5588   -0.0720   50.8135 S.3     1  ZINC000188380122    0.1000
      7 C7         -6.9052    1.6470   50.9842 C.2     1  ZINC000188380122    0.1100
      8 C8         -8.0940    2.2207   51.6506 C.ar    1  ZINC000188380122   -0.0200
      9 C9         -8.2906    3.6021   51.6650 C.ar    1  ZINC000188380122   -0.0400
     10 C10        -9.4023    4.1312   52.2881 C.ar    1  ZINC000188380122   -0.1200
     11 C11       -10.3205    3.2953   52.8981 C.ar    1  ZINC000188380122   -0.0600
     12 C12       -10.1312    1.9245   52.8873 C.ar    1  ZINC000188380122   -0.1800
     13 C13       -11.1368    1.0215   53.5538 C.3     1  ZINC000188380122    0.5100
     14 F14       -10.7985    0.8614   54.9019 F       1  ZINC000188380122   -0.1700
     15 F15       -12.4111    1.5909   53.4572 F       1  ZINC000188380122   -0.1700
     16 F16       -11.1344   -0.2263   52.9210 F       1  ZINC000188380122   -0.1700
     17 C17        -9.0270    1.3826   52.2629 C.ar    1  ZINC000188380122   -0.0500
     18 N18        -5.9433    2.3312   50.4341 N.2     1  ZINC000188380122   -0.4300
     19 N19        -1.6747    3.1863   50.1405 N.am    1  ZINC000188380122   -0.7200
     20 C20        -0.4803    3.0459   50.9770 C.3     1  ZINC000188380122    0.1300
     21 H21        -0.7141    2.7861   52.0094 H       1  ZINC000188380122    0.1200
     22 C22         0.5078    4.2183   50.8441 C.3     1  ZINC000188380122   -0.1800
     23 C23         1.6205    3.1658   50.9129 C.3     1  ZINC000188380122    0.0900
     24 H24         1.8910    2.9313   51.9425 H       1  ZINC000188380122    0.1200
     25 O25         2.7569    3.4360   50.1313 O.3     1  ZINC000188380122   -0.3700
     26 C26         2.6548    3.4086   48.7197 C.3     1  ZINC000188380122    0.0700
     27 C27         1.9306    2.1478   48.2500 C.3     1  ZINC000188380122   -0.1600
     28 C28         0.5142    2.1513   48.8335 C.3     1  ZINC000188380122   -0.1100
     29 C29         0.6141    2.1592   50.3488 C.3     1  ZINC000188380122   -0.1500
     30 H30         0.6860    1.1616   50.7822 H       1  ZINC000188380122    0.0900
     31 H31        -4.0229    3.3836   49.0709 H       1  ZINC000188380122    0.1100
     32 H32        -3.6200    1.8618   48.2401 H       1  ZINC000188380122    0.1100
     33 H33        -4.3569   -0.3942   49.5676 H       1  ZINC000188380122    0.1800
     34 H34        -7.5742    4.2557   51.1898 H       1  ZINC000188380122    0.1500
     35 H35        -9.5559    5.2000   52.3000 H       1  ZINC000188380122    0.1400
     36 H36       -11.1886    3.7144   53.3850 H       1  ZINC000188380122    0.1500
     37 H37        -8.8804    0.3127   52.2551 H       1  ZINC000188380122    0.1400
     38 H38        -1.8211    4.0023   49.6369 H       1  ZINC000188380122    0.4000
     39 H39         0.4504    4.7333   49.8851 H       1  ZINC000188380122    0.0900
     40 H40         0.4961    4.8999   51.6947 H       1  ZINC000188380122    0.0800
     41 H41         2.1019    4.2857   48.3834 H       1  ZINC000188380122    0.0500
     42 H42         3.6552    3.4292   48.2876 H       1  ZINC000188380122    0.1000
     43 H43         1.8777    2.1404   47.1613 H       1  ZINC000188380122    0.0800
     44 H44         2.4678    1.2658   48.5987 H       1  ZINC000188380122    0.0800
     45 H45        -0.0173    3.0415   48.4973 H       1  ZINC000188380122    0.0700
     46 H46        -0.0186    1.2591   48.5049 H       1  ZINC000188380122    0.0800
@<TRIPOS>BOND
     1     1     2    2
     2     2     3    1
     3     2    19   am
     4     3     4    1
     5     3    31    1
     6     3    32    1
     7     4    18    1
     8     4     5    2
     9     5     6    1
    10     5    33    1
    11     6     7    1
    12     7     8    1
    13     7    18    2
    14     8    17   ar
    15     8     9   ar
    16     9    10   ar
    17     9    34    1
    18    10    11   ar
    19    10    35    1
    20    11    12   ar
    21    11    36    1
    22    12    13    1
    23    12    17   ar
    24    13    14    1
    25    13    15    1
    26    13    16    1
    27    17    37    1
    28    19    20    1
    29    19    38    1
    30    20    21    1
    31    20    29    1
    32    20    22    1
    33    22    23    1
    34    22    39    1
    35    22    40    1
    36    23    24    1
    37    23    29    1
    38    23    25    1
    39    25    26    1
    40    26    27    1
    41    26    41    1
    42    26    42    1
    43    27    28    1
    44    27    43    1
    45    27    44    1
    46    28    29    1
    47    28    45    1
    48    28    46    1
    49    29    30    1
@<TRIPOS>SUBSTRUCTURE
     1 ZINC000188380122        1 TEMP              0 ****  ****    0 ROOT


##########                                Name:    ZINC000482910431
##########                DOCK_Rotatable_Bonds:                   7
##########                         Heavy_Atoms:                  29
##########                    Molecular_Weight:             414.867
##########                DOCK_Rotatable_Bonds:                   7
##########                       Formal_Charge:          -0.0300001
##########                     HBond_Acceptors:                   8
##########                        HBond_Donors:                   2
##########                         Heavy_Atoms:                  29
##########                          Grid_Score:          -31.979242
##########                     Grid_vdw_energy:          -28.559786
##########                      Grid_es_energy:           -3.419456
##########           Internal_energy_repulsive:           15.595758

@<TRIPOS>MOLECULE
ZINC000482910431
 49 51 1 0 0
SMALL
USER_CHARGES


@<TRIPOS>ATOM
      1 C1        -15.4514   -2.2165   56.4931 C.3     1  ZINC000482910431   -0.1500
      2 C2        -14.4644   -2.5974   55.3878 C.3     1  ZINC000482910431    0.0800
      3 C3        -14.1617   -4.0951   55.4683 C.3     1  ZINC000482910431   -0.1400
      4 C4        -15.0533   -2.2857   54.0753 C.1     1  ZINC000482910431    0.2100
      5 N5        -15.5078   -2.0451   53.0624 N.1     1  ZINC000482910431   -0.4300
      6 C6        -13.1875   -1.8167   55.5636 C.ar    1  ZINC000482910431   -0.1000
      7 C7        -13.0868   -0.8770   56.5730 C.ar    1  ZINC000482910431   -0.0900
      8 C8        -11.9177   -0.1601   56.7371 C.ar    1  ZINC000482910431   -0.1200
      9 C9        -10.8426   -0.3840   55.8871 C.ar    1  ZINC000482910431    0.1700
     10 N10        -9.6564    0.3403   56.0510 N.am    1  ZINC000482910431   -0.6800
     11 C11        -9.2997    1.2647   55.1374 C.2     1  ZINC000482910431    0.7100
     12 O12       -10.0083    1.4692   54.1708 O.2     1  ZINC000482910431   -0.5500
     13 N13        -8.1573    1.9623   55.2952 N.am    1  ZINC000482910431   -0.7300
     14 C14        -7.7685    2.9658   54.3013 C.3     1  ZINC000482910431    0.1400
     15 H15        -8.6522    3.4101   53.8433 H       1  ZINC000482910431    0.1400
     16 C16        -6.8883    4.0585   54.9510 C.3     1  ZINC000482910431   -0.1400
     17 C17        -5.8859    4.3706   53.8178 C.3     1  ZINC000482910431    0.0900
     18 N18        -5.8280    3.1533   53.0000 N.am    1  ZINC000482910431   -0.5600
     19 C19        -4.8119    2.8669   52.0810 C.ar    1  ZINC000482910431    0.2000
     20 C20        -3.5052    2.6988   52.5193 C.ar    1  ZINC000482910431   -0.1600
     21 C21        -2.5031    2.4162   51.6113 C.ar    1  ZINC000482910431   -0.0500
     22 C22        -2.7997    2.3003   50.2653 C.ar    1  ZINC000482910431   -0.1000
     23 Cl23       -1.5379    1.9451   49.1271 Cl      1  ZINC000482910431   -0.0500
     24 C24        -4.1032    2.4669   49.8240 C.ar    1  ZINC000482910431    0.1400
     25 F25        -4.3908    2.3528   48.5089 F       1  ZINC000482910431   -0.1200
     26 C26        -5.1102    2.7448   50.7303 C.ar    1  ZINC000482910431   -0.1900
     27 C27        -6.8789    2.3479   53.2451 C.2     1  ZINC000482910431    0.5000
     28 O28        -7.0793    1.2825   52.7012 O.2     1  ZINC000482910431   -0.4800
     29 C29       -10.9469   -1.3284   54.8743 C.ar    1  ZINC000482910431   -0.1400
     30 C30       -12.1169   -2.0457   54.7189 C.ar    1  ZINC000482910431   -0.0900
     31 H31       -15.0153   -2.4473   57.4650 H       1  ZINC000482910431    0.0800
     32 H32       -15.6670   -1.1495   56.4358 H       1  ZINC000482910431    0.0700
     33 H33       -16.3750   -2.7812   56.3659 H       1  ZINC000482910431    0.0700
     34 H34       -15.0854   -4.6597   55.3411 H       1  ZINC000482910431    0.0700
     35 H35       -13.4586   -4.3665   54.6809 H       1  ZINC000482910431    0.0700
     36 H36       -13.7257   -4.3259   56.4402 H       1  ZINC000482910431    0.0800
     37 H37       -13.9233   -0.7031   57.2336 H       1  ZINC000482910431    0.1400
     38 H38       -11.8398    0.5739   57.5254 H       1  ZINC000482910431    0.1400
     39 H39        -9.0911    0.1770   56.8221 H       1  ZINC000482910431    0.4100
     40 H40        -7.5926    1.7999   56.0669 H       1  ZINC000482910431    0.4000
     41 H41        -7.4805    4.9386   55.2014 H       1  ZINC000482910431    0.1100
     42 H42        -6.3741    3.6727   55.8313 H       1  ZINC000482910431    0.1000
     43 H43        -6.2417    5.2099   53.2202 H       1  ZINC000482910431    0.0900
     44 H44        -4.9032    4.5925   54.2339 H       1  ZINC000482910431    0.1000
     45 H45        -3.2721    2.7895   53.5700 H       1  ZINC000482910431    0.1700
     46 H46        -1.4868    2.2860   51.9527 H       1  ZINC000482910431    0.1500
     47 H47        -6.1260    2.8743   50.3871 H       1  ZINC000482910431    0.1500
     48 H48       -10.1125   -1.5048   54.2117 H       1  ZINC000482910431    0.1300
     49 H49       -12.1985   -2.7806   53.9317 H       1  ZINC000482910431    0.1300
@<TRIPOS>BOND
     1     1     2    1
     2     1    31    1
     3     1    32    1
     4     1    33    1
     5     2     3    1
     6     2     4    1
     7     2     6    1
     8     3    34    1
     9     3    35    1
    10     3    36    1
    11     4     5    3
    12     6    30   ar
    13     6     7   ar
    14     7     8   ar
    15     7    37    1
    16     8     9   ar
    17     8    38    1
    18     9    10    1
    19     9    29   ar
    20    10    11   am
    21    10    39    1
    22    11    12    2
    23    11    13   am
    24    13    14    1
    25    13    40    1
    26    14    15    1
    27    14    27    1
    28    14    16    1
    29    16    17    1
    30    16    41    1
    31    16    42    1
    32    17    18    1
    33    17    43    1
    34    17    44    1
    35    18    19    1
    36    18    27   am
    37    19    26   ar
    38    19    20   ar
    39    20    21   ar
    40    20    45    1
    41    21    22   ar
    42    21    46    1
    43    22    23    1
    44    22    24   ar
    45    24    25    1
    46    24    26   ar
    47    26    47    1
    48    27    28    2
    49    29    30   ar
    50    29    48    1
    51    30    49    1
@<TRIPOS>SUBSTRUCTURE
     1 ZINC000482910431        1 TEMP              0 ****  ****    0 ROOT


##########                                Name:    ZINC000573650873
##########                DOCK_Rotatable_Bonds:                  10
##########                         Heavy_Atoms:                  28
##########                    Molecular_Weight:             418.843
##########                DOCK_Rotatable_Bonds:                  10
##########                       Formal_Charge:          -0.0500001
##########                     HBond_Acceptors:                   9
##########                        HBond_Donors:                   1
##########                         Heavy_Atoms:                  28
##########                          Grid_Score:          -31.973660
##########                     Grid_vdw_energy:          -31.762608
##########                      Grid_es_energy:           -0.211052
##########           Internal_energy_repulsive:           12.717281

@<TRIPOS>MOLECULE
ZINC000573650873
 50 51 1 0 0
SMALL
USER_CHARGES


@<TRIPOS>ATOM
      1 C1        -11.0614   -2.9980   52.7198 C.3     1  ZINC000573650873   -0.1400
      2 C2        -12.1105   -2.2101   53.5069 C.3     1  ZINC000573650873    0.0100
      3 C3        -11.8439   -0.7114   53.3536 C.3     1  ZINC000573650873   -0.1400
      4 C4        -13.5045   -2.5379   52.9681 C.3     1  ZINC000573650873   -0.1500
      5 C5        -12.0335   -2.5876   54.9638 C.2     1  ZINC000573650873   -0.0100
      6 C6        -11.2169   -2.0457   55.8969 C.2     1  ZINC000573650873   -0.1800
      7 C7        -11.5428   -2.7514   57.0884 C.2     1  ZINC000573650873   -0.0300
      8 C8        -10.9430   -2.5582   58.4312 C.2     1  ZINC000573650873    0.6000
      9 O9         -9.8396   -3.0050   58.6737 O.2     1  ZINC000573650873   -0.5100
     10 N10       -11.6222   -1.8868   59.3823 N.am    1  ZINC000573650873   -0.5900
     11 C11       -11.0298   -1.6959   60.7086 C.3     1  ZINC000573650873    0.1200
     12 C12        -9.9365   -0.6285   60.6299 C.3     1  ZINC000573650873   -0.1000
     13 C13        -9.6321   -0.1181   62.0147 C.ar    1  ZINC000573650873   -0.0800
     14 C14       -10.0979    1.1214   62.4121 C.ar    1  ZINC000573650873   -0.1000
     15 C15        -9.8191    1.5901   63.6822 C.ar    1  ZINC000573650873   -0.1100
     16 C16        -9.0738    0.8185   64.5557 C.ar    1  ZINC000573650873   -0.0400
     17 Cl17       -8.7237    1.4063   66.1513 Cl      1  ZINC000573650873   -0.0700
     18 C18        -8.6079   -0.4219   64.1576 C.ar    1  ZINC000573650873   -0.1100
     19 C19        -8.8921   -0.8918   62.8891 C.ar    1  ZINC000573650873   -0.1000
     20 C20       -12.9527   -1.3481   59.0900 C.3     1  ZINC000573650873    0.0700
     21 C21       -14.0152   -2.3868   59.4553 C.3     1  ZINC000573650873    0.0600
     22 H22       -13.7342   -3.3550   59.0412 H       1  ZINC000573650873    0.1400
     23 O23       -14.1136   -2.4874   60.8774 O.3     1  ZINC000573650873   -0.5200
     24 C24       -15.3664   -1.9584   58.8795 C.3     1  ZINC000573650873    0.4300
     25 F25       -15.2700   -1.8599   57.4874 F       1  ZINC000573650873   -0.1700
     26 F26       -16.3377   -2.9082   59.2136 F       1  ZINC000573650873   -0.1700
     27 F27       -15.7270   -0.7157   59.4112 F       1  ZINC000573650873   -0.1800
     28 N28       -12.4798   -3.6059   56.7604 N.2     1  ZINC000573650873   -0.3400
     29 O29       -12.7645   -3.5212   55.5884 O.3     1  ZINC000573650873    0.1300
     30 H30       -10.0682   -2.7645   53.1036 H       1  ZINC000573650873    0.0600
     31 H31       -11.2514   -4.0657   52.8290 H       1  ZINC000573650873    0.0600
     32 H32       -11.1172   -2.7250   51.6660 H       1  ZINC000573650873    0.0700
     33 H33       -11.8995   -0.4384   52.2998 H       1  ZINC000573650873    0.0700
     34 H34       -12.5913   -0.1502   53.9143 H       1  ZINC000573650873    0.0600
     35 H35       -10.8508   -0.4779   53.7374 H       1  ZINC000573650873    0.0600
     36 H36       -13.6946   -3.6056   53.0774 H       1  ZINC000573650873    0.0600
     37 H37       -14.2520   -1.9767   53.5288 H       1  ZINC000573650873    0.0600
     38 H38       -13.5602   -2.2649   51.9144 H       1  ZINC000573650873    0.0700
     39 H39       -10.4872   -1.2601   55.7671 H       1  ZINC000573650873    0.1800
     40 H40       -11.8014   -1.3748   61.4083 H       1  ZINC000573650873    0.0900
     41 H41       -10.5964   -2.6354   61.0515 H       1  ZINC000573650873    0.1000
     42 H42        -9.0354   -1.0626   60.1964 H       1  ZINC000573650873    0.0800
     43 H43       -10.2787    0.1968   60.0055 H       1  ZINC000573650873    0.0800
     44 H44       -10.6794    1.7238   61.7299 H       1  ZINC000573650873    0.1300
     45 H45       -10.1827    2.5585   63.9923 H       1  ZINC000573650873    0.1300
     46 H46        -8.0257   -1.0245   64.8389 H       1  ZINC000573650873    0.1300
     47 H47        -8.5288   -1.8602   62.5783 H       1  ZINC000573650873    0.1300
     48 H48       -13.1143   -0.4421   59.6740 H       1  ZINC000573650873    0.1000
     49 H49       -13.0244   -1.1132   58.0279 H       1  ZINC000573650873    0.1200
     50 H50       -13.2942   -2.7647   61.3097 H       1  ZINC000573650873    0.3900
@<TRIPOS>BOND
     1     1     2    1
     2     1    30    1
     3     1    31    1
     4     1    32    1
     5     2     3    1
     6     2     4    1
     7     2     5    1
     8     3    33    1
     9     3    34    1
    10     3    35    1
    11     4    36    1
    12     4    37    1
    13     4    38    1
    14     5    29    1
    15     5     6    2
    16     6     7    1
    17     6    39    1
    18     7     8    1
    19     7    28    2
    20     8     9    2
    21     8    10   am
    22    10    11    1
    23    10    20    1
    24    11    12    1
    25    11    40    1
    26    11    41    1
    27    12    13    1
    28    12    42    1
    29    12    43    1
    30    13    19   ar
    31    13    14   ar
    32    14    15   ar
    33    14    44    1
    34    15    16   ar
    35    15    45    1
    36    16    17    1
    37    16    18   ar
    38    18    19   ar
    39    18    46    1
    40    19    47    1
    41    20    21    1
    42    20    48    1
    43    20    49    1
    44    21    22    1
    45    21    23    1
    46    21    24    1
    47    23    50    1
    48    24    25    1
    49    24    26    1
    50    24    27    1
    51    28    29    1
@<TRIPOS>SUBSTRUCTURE
     1 ZINC000573650873        1 TEMP              0 ****  ****    0 ROOT


##########                                Name:    ZINC000546115054
##########                DOCK_Rotatable_Bonds:                  10
##########                         Heavy_Atoms:                  26
##########                    Molecular_Weight:             363.457
##########                DOCK_Rotatable_Bonds:                  10
##########                       Formal_Charge:        -4.39584e-07
##########                     HBond_Acceptors:                   7
##########                        HBond_Donors:                   2
##########                         Heavy_Atoms:                  26
##########                          Grid_Score:          -31.941673
##########                     Grid_vdw_energy:          -29.768045
##########                      Grid_es_energy:           -2.173629
##########           Internal_energy_repulsive:           25.046253

@<TRIPOS>MOLECULE
ZINC000546115054
 55 56 1 0 0
SMALL
USER_CHARGES


@<TRIPOS>ATOM
      1 C1         -9.0053   -3.4361   59.5086 C.3     1  ZINC000546115054   -0.1500
      2 C2         -9.3044   -2.5130   60.6916 C.3     1  ZINC000546115054    0.0600
      3 O3        -10.4740   -1.7416   60.4100 O.3     1  ZINC000546115054   -0.3700
      4 C4        -10.2312   -0.3379   60.2970 C.3     1  ZINC000546115054    0.0500
      5 H5         -9.1781   -0.1673   60.0733 H       1  ZINC000546115054    0.0700
      6 C6        -10.5924    0.3515   61.6153 C.3     1  ZINC000546115054    0.0400
      7 O7        -10.4037    1.7616   61.4812 O.3     1  ZINC000546115054   -0.3700
      8 C8        -11.2207    2.3667   60.4770 C.3     1  ZINC000546115054    0.0600
      9 C9        -10.8848    1.7582   59.1130 C.3     1  ZINC000546115054   -0.1600
     10 C10       -11.0939    0.2419   59.1720 C.3     1  ZINC000546115054    0.1700
     11 H11       -12.1437    0.0261   59.3713 H       1  ZINC000546115054    0.1000
     12 N12       -10.7047   -0.3567   57.8928 N.am    1  ZINC000546115054   -0.7300
     13 C13       -11.6179   -1.0140   57.1508 C.2     1  ZINC000546115054    0.7200
     14 O14       -12.7644   -1.1114   57.5438 O.2     1  ZINC000546115054   -0.5900
     15 N15       -11.2602   -1.5633   55.9731 N.am    1  ZINC000546115054   -0.7200
     16 C16       -12.2524   -2.2793   55.1674 C.3     1  ZINC000546115054    0.1600
     17 H17       -13.1759   -1.7014   55.1306 H       1  ZINC000546115054    0.1200
     18 C18       -11.7142   -2.4716   53.7482 C.3     1  ZINC000546115054   -0.1000
     19 C19       -11.9611   -1.2216   52.9437 C.ar    1  ZINC000546115054   -0.0800
     20 C20       -12.9979   -1.1809   52.0302 C.ar    1  ZINC000546115054   -0.1100
     21 C21       -13.2243   -0.0342   51.2923 C.ar    1  ZINC000546115054   -0.1200
     22 C22       -12.4142    1.0719   51.4678 C.ar    1  ZINC000546115054   -0.1200
     23 C23       -11.3779    1.0317   52.3818 C.ar    1  ZINC000546115054   -0.1200
     24 C24       -11.1542   -0.1135   53.1230 C.ar    1  ZINC000546115054   -0.1100
     25 C25       -12.5264   -3.6252   55.7875 C.2     1  ZINC000546115054    0.5000
     26 O26       -11.6175   -4.2666   56.2706 O.2     1  ZINC000546115054   -0.5200
     27 N27       -13.7815   -4.1162   55.8052 N.am    1  ZINC000546115054   -0.6200
     28 C28       -14.8797   -3.3406   55.2233 C.3     1  ZINC000546115054    0.0800
     29 C29       -14.0474   -5.4253   56.4064 C.3     1  ZINC000546115054    0.0700
     30 H30        -8.1132   -4.0244   59.7233 H       1  ZINC000546115054    0.0700
     31 H31        -9.8509   -4.1043   59.3464 H       1  ZINC000546115054    0.0600
     32 H32        -8.8386   -2.8370   58.6134 H       1  ZINC000546115054    0.0600
     33 H33        -9.4710   -3.1120   61.5868 H       1  ZINC000546115054    0.0500
     34 H34        -8.4587   -1.8446   60.8538 H       1  ZINC000546115054    0.0500
     35 H35       -11.6345    0.1458   61.8596 H       1  ZINC000546115054    0.0600
     36 H36        -9.9508   -0.0270   62.4112 H       1  ZINC000546115054    0.1000
     37 H37       -12.2711    2.1874   60.7063 H       1  ZINC000546115054    0.0600
     38 H38       -11.0319    3.4399   60.4527 H       1  ZINC000546115054    0.1000
     39 H39       -11.5374    2.1866   58.3523 H       1  ZINC000546115054    0.0900
     40 H40        -9.8452    1.9722   58.8648 H       1  ZINC000546115054    0.0800
     41 H41        -9.7899   -0.2801   57.5798 H       1  ZINC000546115054    0.3900
     42 H42       -10.3459   -1.4845   55.6590 H       1  ZINC000546115054    0.4000
     43 H43       -10.6435   -2.6714   53.7897 H       1  ZINC000546115054    0.0900
     44 H44       -12.2229   -3.3129   53.2776 H       1  ZINC000546115054    0.1100
     45 H45       -13.6308   -2.0452   51.8931 H       1  ZINC000546115054    0.1200
     46 H46       -14.0339   -0.0027   50.5781 H       1  ZINC000546115054    0.1200
     47 H47       -12.5907    1.9676   50.8907 H       1  ZINC000546115054    0.1200
     48 H48       -10.7448    1.8959   52.5188 H       1  ZINC000546115054    0.1200
     49 H49       -10.3445   -0.1450   53.8371 H       1  ZINC000546115054    0.1200
     50 H50       -14.9886   -3.5989   54.1700 H       1  ZINC000546115054    0.0600
     51 H51       -15.8055   -3.5693   55.7512 H       1  ZINC000546115054    0.0700
     52 H52       -14.6619   -2.2766   55.3159 H       1  ZINC000546115054    0.0800
     53 H53       -14.2768   -5.2995   57.4646 H       1  ZINC000546115054    0.0600
     54 H54       -14.8953   -5.8905   55.9037 H       1  ZINC000546115054    0.0800
     55 H55       -13.1681   -6.0603   56.2984 H       1  ZINC000546115054    0.0700
@<TRIPOS>BOND
     1     1     2    1
     2     1    30    1
     3     1    31    1
     4     1    32    1
     5     2     3    1
     6     2    33    1
     7     2    34    1
     8     3     4    1
     9     4     5    1
    10     4    10    1
    11     4     6    1
    12     6     7    1
    13     6    35    1
    14     6    36    1
    15     7     8    1
    16     8     9    1
    17     8    37    1
    18     8    38    1
    19     9    10    1
    20     9    39    1
    21     9    40    1
    22    10    11    1
    23    10    12    1
    24    12    13   am
    25    12    41    1
    26    13    14    2
    27    13    15   am
    28    15    16    1
    29    15    42    1
    30    16    17    1
    31    16    18    1
    32    16    25    1
    33    18    19    1
    34    18    43    1
    35    18    44    1
    36    19    24   ar
    37    19    20   ar
    38    20    21   ar
    39    20    45    1
    40    21    22   ar
    41    21    46    1
    42    22    23   ar
    43    22    47    1
    44    23    24   ar
    45    23    48    1
    46    24    49    1
    47    25    26    2
    48    25    27   am
    49    27    28    1
    50    27    29    1
    51    28    50    1
    52    28    51    1
    53    28    52    1
    54    29    53    1
    55    29    54    1
    56    29    55    1
@<TRIPOS>SUBSTRUCTURE
     1 ZINC000546115054        1 TEMP              0 ****  ****    0 ROOT


##########                                Name:    ZINC000481838178
##########                DOCK_Rotatable_Bonds:                   6
##########                         Heavy_Atoms:                  29
##########                    Molecular_Weight:             408.524
##########                DOCK_Rotatable_Bonds:                   6
##########                       Formal_Charge:         -0.00999962
##########                     HBond_Acceptors:                   7
##########                        HBond_Donors:                   0
##########                         Heavy_Atoms:                  29
##########                          Grid_Score:          -31.928003
##########                     Grid_vdw_energy:          -33.254768
##########                      Grid_es_energy:            1.326766
##########           Internal_energy_repulsive:           11.766711

@<TRIPOS>MOLECULE
ZINC000481838178
 53 57 1 0 0
SMALL
USER_CHARGES


@<TRIPOS>ATOM
      1 O1         -5.2165   -0.0138   50.3612 O.2     1  ZINC000481838178   -0.5200
      2 C2         -5.3832    1.1854   50.4315 C.2     1  ZINC000481838178    0.5500
      3 C3         -4.5578    2.1122   49.5765 C.3     1  ZINC000481838178   -0.1500
      4 S4         -3.4866    3.1159   50.6353 S.3     1  ZINC000481838178    0.1000
      5 C5         -1.9239    2.3913   50.2645 C.2     1  ZINC000481838178    0.1600
      6 N6         -1.6853    1.4800   49.3483 N.2     1  ZINC000481838178   -0.2800
      7 N7         -0.4378    1.1721   49.3429 N.2     1  ZINC000481838178   -0.2500
      8 C8          0.2017    1.8688   50.2571 C.2     1  ZINC000481838178    0.2700
      9 C9          1.6393    1.8029   50.5608 C.2     1  ZINC000481838178    0.0300
     10 C10         2.6406    1.6124   49.6560 C.2     1  ZINC000481838178   -0.1300
     11 C11         3.8480    1.6179   50.3806 C.2     1  ZINC000481838178   -0.2100
     12 C12         3.5310    1.8091   51.6767 C.2     1  ZINC000481838178   -0.0100
     13 O13         2.1968    1.9262   51.7816 O.3     1  ZINC000481838178   -0.1700
     14 N14        -0.7312    2.6772   50.8731 N.pl3   1  ZINC000481838178   -0.4100
     15 C15        -0.5067    3.5927   51.9104 C.ar    1  ZINC000481838178    0.1000
     16 C16         0.5286    4.5126   51.8143 C.ar    1  ZINC000481838178   -0.0800
     17 C17         0.7475    5.4134   52.8383 C.ar    1  ZINC000481838178   -0.1100
     18 C18        -0.0635    5.3997   53.9582 C.ar    1  ZINC000481838178   -0.1000
     19 C19        -1.0955    4.4846   54.0568 C.ar    1  ZINC000481838178   -0.1100
     20 C20        -1.3228    3.5850   53.0336 C.ar    1  ZINC000481838178   -0.0900
     21 N21        -6.3104    1.6891   51.2700 N.am    1  ZINC000481838178   -0.6200
     22 C22        -7.1893    0.8994   52.1735 C.3     1  ZINC000481838178    0.1000
     23 C23        -7.5233    1.8934   53.2921 C.3     1  ZINC000481838178   -0.1100
     24 H24        -6.6713    2.0340   53.9572 H       1  ZINC000481838178    0.0900
     25 C25        -8.7874    1.6132   54.0826 C.3     1  ZINC000481838178   -0.1100
     26 C26        -8.9811    2.7877   55.0562 C.3     1  ZINC000481838178   -0.1200
     27 C27        -9.0657    4.1210   54.3202 C.3     1  ZINC000481838178   -0.1200
     28 C28        -7.8532    4.3372   53.3988 C.3     1  ZINC000481838178   -0.1000
     29 C29        -7.7901    3.1707   52.4401 C.3     1  ZINC000481838178   -0.1100
     30 H30        -8.7433    3.0613   51.9228 H       1  ZINC000481838178    0.0900
     31 C31        -6.6258    3.1274   51.4551 C.3     1  ZINC000481838178    0.1200
     32 H32        -3.9452    1.5257   48.8917 H       1  ZINC000481838178    0.1300
     33 H33        -5.2183    2.7645   49.0054 H       1  ZINC000481838178    0.1300
     34 H34         2.5294    1.4821   48.5896 H       1  ZINC000481838178    0.1600
     35 H35         4.8408    1.4924   49.9746 H       1  ZINC000481838178    0.1600
     36 H36         4.2337    1.8636   52.4950 H       1  ZINC000481838178    0.2100
     37 H37         1.1625    4.5236   50.9400 H       1  ZINC000481838178    0.1300
     38 H38         1.5529    6.1291   52.7642 H       1  ZINC000481838178    0.1400
     39 H39         0.1097    6.1048   54.7577 H       1  ZINC000481838178    0.1300
     40 H40        -1.7270    4.4759   54.9329 H       1  ZINC000481838178    0.1400
     41 H41        -2.1290    2.8706   53.1112 H       1  ZINC000481838178    0.1300
     42 H42        -8.0948    0.5868   51.6533 H       1  ZINC000481838178    0.0800
     43 H43        -6.6557    0.0365   52.5721 H       1  ZINC000481838178    0.0800
     44 H44        -9.6406    1.5456   53.4076 H       1  ZINC000481838178    0.0700
     45 H45        -8.6786    0.6827   54.6399 H       1  ZINC000481838178    0.0700
     46 H46        -9.9010    2.6339   55.6205 H       1  ZINC000481838178    0.0600
     47 H47        -8.1407    2.8170   55.7497 H       1  ZINC000481838178    0.0600
     48 H48        -9.9759    4.1395   53.7209 H       1  ZINC000481838178    0.0600
     49 H49        -9.1059    4.9289   55.0509 H       1  ZINC000481838178    0.0700
     50 H50        -7.9696    5.2682   52.8438 H       1  ZINC000481838178    0.0700
     51 H51        -6.9380    4.3680   53.9900 H       1  ZINC000481838178    0.0700
     52 H52        -5.7684    3.6634   51.8620 H       1  ZINC000481838178    0.0700
     53 H53        -6.9237    3.5617   50.5008 H       1  ZINC000481838178    0.0700
@<TRIPOS>BOND
     1     1     2    2
     2     2     3    1
     3     2    21   am
     4     3     4    1
     5     3    32    1
     6     3    33    1
     7     4     5    1
     8     5    14    1
     9     5     6    2
    10     6     7    1
    11     7     8    2
    12     8     9    1
    13     8    14    1
    14     9    13    1
    15     9    10    2
    16    10    11    1
    17    10    34    1
    18    11    12    2
    19    11    35    1
    20    12    13    1
    21    12    36    1
    22    14    15    1
    23    15    20   ar
    24    15    16   ar
    25    16    17   ar
    26    16    37    1
    27    17    18   ar
    28    17    38    1
    29    18    19   ar
    30    18    39    1
    31    19    20   ar
    32    19    40    1
    33    20    41    1
    34    21    31    1
    35    21    22    1
    36    22    23    1
    37    22    42    1
    38    22    43    1
    39    23    24    1
    40    23    29    1
    41    23    25    1
    42    25    26    1
    43    25    44    1
    44    25    45    1
    45    26    27    1
    46    26    46    1
    47    26    47    1
    48    27    28    1
    49    27    48    1
    50    27    49    1
    51    28    29    1
    52    28    50    1
    53    28    51    1
    54    29    30    1
    55    29    31    1
    56    31    52    1
    57    31    53    1
@<TRIPOS>SUBSTRUCTURE
     1 ZINC000481838178        1 TEMP              0 ****  ****    0 ROOT


##########                                Name:    ZINC000461336108
##########                DOCK_Rotatable_Bonds:                   5
##########                         Heavy_Atoms:                  26
##########                    Molecular_Weight:             373.522
##########                DOCK_Rotatable_Bonds:                   5
##########                       Formal_Charge:        -3.42727e-07
##########                     HBond_Acceptors:                   7
##########                        HBond_Donors:                   0
##########                         Heavy_Atoms:                  26
##########                          Grid_Score:          -31.863117
##########                     Grid_vdw_energy:          -31.378187
##########                      Grid_es_energy:           -0.484930
##########           Internal_energy_repulsive:           10.963530

@<TRIPOS>MOLECULE
ZINC000461336108
 53 56 1 0 0
SMALL
USER_CHARGES


@<TRIPOS>ATOM
      1 C1         -5.7743    4.5445   52.4173 C.3     1  ZINC000461336108   -0.1300
      2 C2         -5.5827    3.7333   51.1342 C.3     1  ZINC000461336108    0.0700
      3 H3         -5.8795    4.3371   50.2767 H       1  ZINC000461336108    0.0800
      4 C4         -4.1362    3.3503   50.9977 C.2     1  ZINC000461336108    0.5300
      5 O5         -3.2889    4.1804   51.2506 O.2     1  ZINC000461336108   -0.5300
      6 N6         -3.7438    2.1324   50.6095 N.am    1  ZINC000461336108   -0.6100
      7 C7         -2.3091    1.8700   50.4719 C.3     1  ZINC000461336108    0.0700
      8 C8         -4.6816    1.0522   50.3169 C.3     1  ZINC000461336108    0.1200
      9 C9         -6.0809    1.6228   50.0791 C.3     1  ZINC000461336108    0.0400
     10 N10        -6.4164    2.5251   51.1920 N.3     1  ZINC000461336108   -0.4300
     11 C11        -7.7626    2.8531   51.1770 C.2     1  ZINC000461336108    0.3300
     12 N12        -8.3791    3.5773   50.2728 N.2     1  ZINC000461336108   -0.2500
     13 N13        -9.6249    3.6804   50.5709 N.2     1  ZINC000461336108   -0.2800
     14 C14        -9.8755    3.0334   51.6738 C.2     1  ZINC000461336108    0.2000
     15 C15       -11.2147    2.9128   52.3542 C.3     1  ZINC000461336108   -0.0300
     16 C16       -12.1363    2.0276   51.5129 C.3     1  ZINC000461336108   -0.0900
     17 C17       -13.4010    1.6410   52.3193 C.3     1  ZINC000461336108   -0.1200
     18 C18       -14.4294    1.3165   51.2073 C.3     1  ZINC000461336108   -0.1200
     19 C19       -14.1420    2.3616   50.1096 C.3     1  ZINC000461336108   -0.1300
     20 C20       -12.6841    2.8137   50.3038 C.3     1  ZINC000461336108   -0.1200
     21 N21        -8.6990    2.4791   52.0965 N.pl3   1  ZINC000461336108   -0.4900
     22 C22        -8.4862    1.6608   53.2928 C.3     1  ZINC000461336108    0.1700
     23 C23        -9.0960    0.2984   53.0844 C.2     1  ZINC000461336108   -0.2400
     24 C24       -10.2396   -0.1232   53.6261 C.2     1  ZINC000461336108   -0.0900
     25 C25       -10.6022   -1.4163   53.2904 C.2     1  ZINC000461336108   -0.1400
     26 C26        -9.7529   -2.0446   52.4761 C.2     1  ZINC000461336108   -0.2000
     27 S27        -8.4122   -0.9760   52.0835 S.3     1  ZINC000461336108    0.1200
     28 H28        -5.4778    3.9419   53.2758 H       1  ZINC000461336108    0.0800
     29 H29        -5.1591    5.4432   52.3743 H       1  ZINC000461336108    0.0800
     30 H30        -6.8227    4.8262   52.5157 H       1  ZINC000461336108    0.0700
     31 H31        -1.7492    2.7703   50.7250 H       1  ZINC000461336108    0.0900
     32 H32        -2.0213    1.0621   51.1447 H       1  ZINC000461336108    0.0700
     33 H33        -2.0893    1.5824   49.4438 H       1  ZINC000461336108    0.0600
     34 H34        -4.3521    0.5188   49.4252 H       1  ZINC000461336108    0.0900
     35 H35        -4.7113    0.3610   51.1593 H       1  ZINC000461336108    0.0900
     36 H36        -6.0951    2.1770   49.1405 H       1  ZINC000461336108    0.0500
     37 H37        -6.8051    0.8092   50.0367 H       1  ZINC000461336108    0.1100
     38 H38       -11.0827    2.4667   53.3398 H       1  ZINC000461336108    0.0800
     39 H39       -11.6589    3.9027   52.4600 H       1  ZINC000461336108    0.1000
     40 H40       -11.6065    1.1353   51.1794 H       1  ZINC000461336108    0.0900
     41 H41       -13.2115    0.7640   52.9380 H       1  ZINC000461336108    0.0600
     42 H42       -13.7418    2.4784   52.9281 H       1  ZINC000461336108    0.0600
     43 H43       -14.2720    0.3081   50.8246 H       1  ZINC000461336108    0.0700
     44 H44       -15.4462    1.4283   51.5838 H       1  ZINC000461336108    0.0700
     45 H45       -14.2654    1.9118   49.1245 H       1  ZINC000461336108    0.0700
     46 H46       -14.8145    3.2124   50.2189 H       1  ZINC000461336108    0.0600
     47 H47       -12.6490    3.8839   50.5075 H       1  ZINC000461336108    0.0700
     48 H48       -12.0999    2.5833   49.4129 H       1  ZINC000461336108    0.0700
     49 H49        -7.4168    1.5561   53.4758 H       1  ZINC000461336108    0.1200
     50 H50        -8.9563    2.1419   54.1504 H       1  ZINC000461336108    0.1000
     51 H51       -10.8372    0.4971   54.2775 H       1  ZINC000461336108    0.1400
     52 H52       -11.5041   -1.8812   53.6601 H       1  ZINC000461336108    0.1500
     53 H53        -9.8722   -3.0540   52.1108 H       1  ZINC000461336108    0.1700
@<TRIPOS>BOND
     1     1     2    1
     2     1    28    1
     3     1    29    1
     4     1    30    1
     5     2     3    1
     6     2    10    1
     7     2     4    1
     8     4     5    2
     9     4     6   am
    10     6     7    1
    11     6     8    1
    12     7    31    1
    13     7    32    1
    14     7    33    1
    15     8     9    1
    16     8    34    1
    17     8    35    1
    18     9    10    1
    19     9    36    1
    20     9    37    1
    21    10    11    1
    22    11    21    1
    23    11    12    2
    24    12    13    1
    25    13    14    2
    26    14    15    1
    27    14    21    1
    28    15    16    1
    29    15    38    1
    30    15    39    1
    31    16    20    1
    32    16    17    1
    33    16    40    1
    34    17    18    1
    35    17    41    1
    36    17    42    1
    37    18    19    1
    38    18    43    1
    39    18    44    1
    40    19    20    1
    41    19    45    1
    42    19    46    1
    43    20    47    1
    44    20    48    1
    45    21    22    1
    46    22    23    1
    47    22    49    1
    48    22    50    1
    49    23    27    1
    50    23    24    2
    51    24    25    1
    52    24    51    1
    53    25    26    2
    54    25    52    1
    55    26    27    1
    56    26    53    1
@<TRIPOS>SUBSTRUCTURE
     1 ZINC000461336108        1 TEMP              0 ****  ****    0 ROOT


##########                                Name:    ZINC001318556452
##########                DOCK_Rotatable_Bonds:                   4
##########                         Heavy_Atoms:                  26
##########                    Molecular_Weight:             368.456
##########                DOCK_Rotatable_Bonds:                   4
##########                       Formal_Charge:          -0.0200005
##########                     HBond_Acceptors:                   6
##########                        HBond_Donors:                   1
##########                         Heavy_Atoms:                  26
##########                          Grid_Score:          -31.848286
##########                     Grid_vdw_energy:          -26.925716
##########                      Grid_es_energy:           -4.922570
##########           Internal_energy_repulsive:           13.283576

@<TRIPOS>MOLECULE
ZINC001318556452
 46 48 1 0 0
SMALL
USER_CHARGES


@<TRIPOS>ATOM
      1 C1         -8.2417    1.1857   54.9885 C.3     1  ZINC001318556452   -0.1300
      2 C2         -9.3663    1.6450   54.0967 C.ar    1  ZINC001318556452   -0.1000
      3 C3        -10.6550    1.7112   54.5878 C.ar    1  ZINC001318556452   -0.0500
      4 C4        -10.9368    1.3232   56.0166 C.3     1  ZINC001318556452   -0.4100
      5 S5        -10.3506    2.6334   57.1258 S.o     1  ZINC001318556452    1.2500
      6 C6        -10.7712    1.9942   58.7704 C.3     1  ZINC001318556452   -0.4900
      7 O7        -11.0835    3.8257   56.8793 O.2     1  ZINC001318556452   -0.8400
      8 C8        -11.6875    2.1335   53.7703 C.ar    1  ZINC001318556452   -0.1200
      9 C9        -11.4334    2.4899   52.4587 C.ar    1  ZINC001318556452   -0.1000
     10 C10       -10.1467    2.4252   51.9607 C.ar    1  ZINC001318556452   -0.1200
     11 C11        -9.1065    2.0078   52.7810 C.ar    1  ZINC001318556452    0.1400
     12 N12        -7.8030    1.9416   52.2803 N.am    1  ZINC001318556452   -0.6600
     13 C13        -7.2134    3.0488   51.7875 C.2     1  ZINC001318556452    0.5600
     14 O14        -7.8147    4.1046   51.7784 O.2     1  ZINC001318556452   -0.5000
     15 C15        -5.8308    2.9786   51.2565 C.2     1  ZINC001318556452   -0.0300
     16 C16        -5.6039    2.7827   49.9241 C.2     1  ZINC001318556452   -0.1600
     17 C17        -4.2302    2.7186   49.4310 C.2     1  ZINC001318556452    0.5300
     18 O18        -4.0269    2.5438   48.2426 O.2     1  ZINC001318556452   -0.5200
     19 N19        -3.1870    2.8499   50.2688 N.am    1  ZINC001318556452   -0.5200
     20 C20        -1.8246    2.7807   49.7349 C.3     1  ZINC001318556452    0.0600
     21 C21        -3.3735    3.0489   51.6201 C.ar    1  ZINC001318556452    0.1800
     22 C22        -2.2795    3.1825   52.4709 C.ar    1  ZINC001318556452   -0.1700
     23 C23        -2.4802    3.3810   53.8195 C.ar    1  ZINC001318556452   -0.0600
     24 C24        -3.7649    3.4494   54.3407 C.ar    1  ZINC001318556452   -0.1500
     25 C25        -4.8528    3.3208   53.5243 C.ar    1  ZINC001318556452   -0.0600
     26 C26        -4.6731    3.1245   52.1522 C.ar    1  ZINC001318556452   -0.1100
     27 H27        -7.8114    2.0451   55.5025 H       1  ZINC001318556452    0.0800
     28 H28        -8.6264    0.4782   55.7231 H       1  ZINC001318556452    0.0800
     29 H29        -7.4739    0.7014   54.3850 H       1  ZINC001318556452    0.0700
     30 H30       -12.0098    1.1864   56.1510 H       1  ZINC001318556452    0.1000
     31 H31       -10.4198    0.3922   56.2489 H       1  ZINC001318556452    0.1300
     32 H32       -10.2584    1.0463   58.9340 H       1  ZINC001318556452    0.1100
     33 H33       -10.4596    2.7116   59.5297 H       1  ZINC001318556452    0.1100
     34 H34       -11.8483    1.8405   58.8360 H       1  ZINC001318556452    0.0800
     35 H35       -12.6946    2.1846   54.1570 H       1  ZINC001318556452    0.1200
     36 H36       -12.2420    2.8190   51.8228 H       1  ZINC001318556452    0.1300
     37 H37        -9.9490    2.7034   50.9361 H       1  ZINC001318556452    0.1500
     38 H38        -7.3229    1.0988   52.2876 H       1  ZINC001318556452    0.4100
     39 H39        -6.4332    2.6757   49.2405 H       1  ZINC001318556452    0.1600
     40 H40        -1.8642    2.6210   48.6574 H       1  ZINC001318556452    0.1000
     41 H41        -1.3041    3.7151   49.9448 H       1  ZINC001318556452    0.0800
     42 H42        -1.2916    1.9544   50.2053 H       1  ZINC001318556452    0.0800
     43 H43        -1.2760    3.1305   52.0748 H       1  ZINC001318556452    0.1400
     44 H44        -1.6299    3.4840   54.4775 H       1  ZINC001318556452    0.1300
     45 H45        -3.9056    3.6050   55.4002 H       1  ZINC001318556452    0.1300
     46 H46        -5.8492    3.3752   53.9375 H       1  ZINC001318556452    0.1700
@<TRIPOS>BOND
     1     1     2    1
     2     1    27    1
     3     1    28    1
     4     1    29    1
     5     2    11   ar
     6     2     3   ar
     7     3     4    1
     8     3     8   ar
     9     4     5    1
    10     4    30    1
    11     4    31    1
    12     5     6    1
    13     5     7    2
    14     6    32    1
    15     6    33    1
    16     6    34    1
    17     8     9   ar
    18     8    35    1
    19     9    10   ar
    20     9    36    1
    21    10    11   ar
    22    10    37    1
    23    11    12    1
    24    12    13   am
    25    12    38    1
    26    13    14    2
    27    13    15    1
    28    15    26    1
    29    15    16    2
    30    16    17    1
    31    16    39    1
    32    17    18    2
    33    17    19   am
    34    19    20    1
    35    19    21    1
    36    20    40    1
    37    20    41    1
    38    20    42    1
    39    21    26   ar
    40    21    22   ar
    41    22    23   ar
    42    22    43    1
    43    23    24   ar
    44    23    44    1
    45    24    25   ar
    46    24    45    1
    47    25    26   ar
    48    25    46    1
@<TRIPOS>SUBSTRUCTURE
     1 ZINC001318556452        1 TEMP              0 ****  ****    0 ROOT


##########                                Name:    ZINC000054627026
##########                DOCK_Rotatable_Bonds:                   5
##########                         Heavy_Atoms:                  28
##########                    Molecular_Weight:              370.37
##########                DOCK_Rotatable_Bonds:                   5
##########                       Formal_Charge:         6.85453e-07
##########                     HBond_Acceptors:                   8
##########                        HBond_Donors:                   2
##########                         Heavy_Atoms:                  28
##########                          Grid_Score:          -31.801048
##########                     Grid_vdw_energy:          -30.758589
##########                      Grid_es_energy:           -1.042459
##########           Internal_energy_repulsive:            5.419105

@<TRIPOS>MOLECULE
ZINC000054627026
 42 46 1 0 0
SMALL
USER_CHARGES


@<TRIPOS>ATOM
      1 O1        -11.8182   -3.8145   57.7916 O.2     1  ZINC000054627026   -0.5200
      2 C2        -11.7578   -2.8415   57.0648 C.2     1  ZINC000054627026    0.6100
      3 N3        -11.0583   -1.7555   57.4493 N.am    1  ZINC000054627026   -0.6500
      4 C4        -10.4058   -1.7455   58.6884 C.ar    1  ZINC000054627026    0.1400
      5 C5         -9.4594   -2.7254   58.9807 C.ar    1  ZINC000054627026   -0.0900
      6 C6         -8.8095   -2.7268   60.1965 C.ar    1  ZINC000054627026   -0.0900
      7 C7         -9.0971   -1.7483   61.1370 C.ar    1  ZINC000054627026    0.0500
      8 N8         -8.6322   -1.4814   62.4130 N.pl3   1  ZINC000054627026   -0.5900
      9 C9         -9.2935   -0.3667   62.8596 C.2     1  ZINC000054627026    0.3700
     10 C10        -9.0998    0.2626   64.1743 C.2     1  ZINC000054627026    0.0200
     11 C11       -10.0106    1.0311   64.8360 C.2     1  ZINC000054627026   -0.1200
     12 C12        -9.4089    1.4198   66.0465 C.2     1  ZINC000054627026   -0.2200
     13 C13        -8.1738    0.8772   66.0672 C.2     1  ZINC000054627026   -0.0100
     14 O14        -7.9925    0.1754   64.9382 O.3     1  ZINC000054627026   -0.1700
     15 N15       -10.1263    0.0545   61.9348 N.2     1  ZINC000054627026   -0.4600
     16 C16       -10.0510   -0.7551   60.8508 C.ar    1  ZINC000054627026    0.0700
     17 C17       -10.7002   -0.7603   59.6123 C.ar    1  ZINC000054627026   -0.0900
     18 C18       -12.4451   -2.8519   55.7598 C.2     1  ZINC000054627026   -0.1000
     19 C19       -12.4153   -1.8481   54.8335 C.2     1  ZINC000054627026    0.1000
     20 N20       -13.1693   -2.2573   53.7900 N.pl3   1  ZINC000054627026   -0.3100
     21 C21       -13.4206   -1.5442   52.6092 C.ar    1  ZINC000054627026    0.1300
     22 C22       -12.5814   -0.5043   52.2326 C.ar    1  ZINC000054627026   -0.1200
     23 C23       -12.8312    0.1960   51.0687 C.ar    1  ZINC000054627026   -0.1000
     24 C24       -13.9161   -0.1374   50.2788 C.ar    1  ZINC000054627026   -0.1100
     25 C25       -14.7541   -1.1723   50.6515 C.ar    1  ZINC000054627026   -0.1000
     26 C26       -14.5058   -1.8803   51.8112 C.ar    1  ZINC000054627026   -0.1000
     27 N27       -13.6518   -3.5331   54.1152 N.2     1  ZINC000054627026   -0.0500
     28 N28       -13.2017   -3.8533   55.2782 N.2     1  ZINC000054627026   -0.2000
     29 H29       -11.0067   -0.9809   56.8677 H       1  ZINC000054627026    0.4200
     30 H30        -9.2339   -3.4885   58.2506 H       1  ZINC000054627026    0.1500
     31 H31        -8.0772   -3.4895   60.4169 H       1  ZINC000054627026    0.1300
     32 H32        -7.9640   -1.9884   62.9002 H       1  ZINC000054627026    0.4300
     33 H33       -11.0022    1.2917   64.4963 H       1  ZINC000054627026    0.1600
     34 H34        -9.8519    2.0366   66.8144 H       1  ZINC000054627026    0.1600
     35 H35        -7.4516    0.9868   66.8628 H       1  ZINC000054627026    0.2100
     36 H36       -11.4307    0.0005   59.3795 H       1  ZINC000054627026    0.1400
     37 H37       -11.8904   -0.9081   54.9191 H       1  ZINC000054627026    0.2100
     38 H38       -11.7342   -0.2430   52.8495 H       1  ZINC000054627026    0.1400
     39 H39       -12.1787    1.0050   50.7753 H       1  ZINC000054627026    0.1400
     40 H40       -14.1097    0.4119   49.3693 H       1  ZINC000054627026    0.1400
     41 H41       -15.6009   -1.4302   50.0328 H       1  ZINC000054627026    0.1400
     42 H42       -15.1606   -2.6885   52.1017 H       1  ZINC000054627026    0.1400
@<TRIPOS>BOND
     1     1     2    2
     2     2     3   am
     3     2    18    1
     4     3     4    1
     5     3    29    1
     6     4    17   ar
     7     4     5   ar
     8     5     6   ar
     9     5    30    1
    10     6     7   ar
    11     6    31    1
    12     7    16   ar
    13     7     8    1
    14     8     9    1
    15     8    32    1
    16     9    10    1
    17     9    15    2
    18    10    14    1
    19    10    11    2
    20    11    12    1
    21    11    33    1
    22    12    13    2
    23    12    34    1
    24    13    14    1
    25    13    35    1
    26    15    16    1
    27    16    17   ar
    28    17    36    1
    29    18    28    1
    30    18    19    2
    31    19    20    1
    32    19    37    1
    33    20    21    1
    34    20    27    1
    35    21    26   ar
    36    21    22   ar
    37    22    23   ar
    38    22    38    1
    39    23    24   ar
    40    23    39    1
    41    24    25   ar
    42    24    40    1
    43    25    26   ar
    44    25    41    1
    45    26    42    1
    46    27    28    2
@<TRIPOS>SUBSTRUCTURE
     1 ZINC000054627026        1 TEMP              0 ****  ****    0 ROOT


##########                                Name:    ZINC000435292384
##########                DOCK_Rotatable_Bonds:                   6
##########                         Heavy_Atoms:                  22
##########                    Molecular_Weight:             326.503
##########                DOCK_Rotatable_Bonds:                   6
##########                       Formal_Charge:         -0.00999993
##########                     HBond_Acceptors:                   5
##########                        HBond_Donors:                   0
##########                         Heavy_Atoms:                  22
##########                          Grid_Score:          -31.785877
##########                     Grid_vdw_energy:          -30.627581
##########                      Grid_es_energy:           -1.158296
##########           Internal_energy_repulsive:           23.067526

@<TRIPOS>MOLECULE
ZINC000435292384
 52 53 1 0 0
SMALL
USER_CHARGES


@<TRIPOS>ATOM
      1 C1         -0.0084    1.4787   50.4895 C.3     1  ZINC000435292384   -0.1500
      2 C2         -1.2796    2.2206   50.0720 C.3     1  ZINC000435292384   -0.1200
      3 C3         -1.8898    2.9134   51.2922 C.3     1  ZINC000435292384   -0.1400
      4 C4         -2.9540    3.9120   50.8325 C.3     1  ZINC000435292384    0.1600
      5 H5         -2.6625    4.3371   49.8720 H       1  ZINC000435292384    0.0900
      6 C6         -3.0836    5.0315   51.8673 C.3     1  ZINC000435292384   -0.1700
      7 N7         -4.2403    3.2250   50.6925 N.am    1  ZINC000435292384   -0.6100
      8 C8         -5.1666    2.9677   51.8015 C.3     1  ZINC000435292384    0.1200
      9 C9         -6.5225    2.6393   51.1380 C.3     1  ZINC000435292384   -0.1300
     10 H10        -7.1335    3.5360   51.0347 H       1  ZINC000435292384    0.1100
     11 C11        -7.2577    1.5752   51.9116 C.2     1  ZINC000435292384    0.5200
     12 O12        -7.3114    0.4420   51.4830 O.2     1  ZINC000435292384   -0.5200
     13 N13        -7.8557    1.8831   53.0795 N.am    1  ZINC000435292384   -0.6000
     14 C14        -7.7717    3.2717   53.5730 C.3     1  ZINC000435292384    0.1000
     15 C15        -9.1116    3.7649   54.1485 C.3     1  ZINC000435292384   -0.1300
     16 C16       -10.2535    3.2888   53.2847 C.3     1  ZINC000435292384   -0.1100
     17 C17       -10.7672    1.9543   53.8163 C.3     1  ZINC000435292384   -0.1200
     18 C18       -10.0273    0.7814   53.3260 C.3     1  ZINC000435292384   -0.0700
     19 H19       -10.0574    0.7654   52.2364 H       1  ZINC000435292384    0.0900
     20 S20       -10.7998   -0.7283   53.9700 S.3     1  ZINC000435292384   -0.2500
     21 C21       -11.4460   -1.5259   52.4745 C.3     1  ZINC000435292384   -0.1200
     22 C22        -8.5578    0.8409   53.7944 C.3     1  ZINC000435292384    0.1400
     23 C23        -6.0770    2.1109   49.7548 C.3     1  ZINC000435292384   -0.1400
     24 C24        -4.7264    2.7545   49.5310 C.2     1  ZINC000435292384    0.5200
     25 O25        -4.1611    2.8287   48.4605 O.2     1  ZINC000435292384   -0.5200
     26 H26         0.4263    0.9851   49.6203 H       1  ZINC000435292384    0.0500
     27 H27         0.7088    2.1893   50.9003 H       1  ZINC000435292384    0.0500
     28 H28        -0.2546    0.7329   51.2454 H       1  ZINC000435292384    0.0500
     29 H29        -1.0334    2.9664   49.3161 H       1  ZINC000435292384    0.0600
     30 H30        -1.9968    1.5100   49.6612 H       1  ZINC000435292384    0.0600
     31 H31        -2.3479    2.1678   51.9420 H       1  ZINC000435292384    0.0800
     32 H32        -1.1084    3.4411   51.8389 H       1  ZINC000435292384    0.0800
     33 H33        -3.3750    4.6064   52.8278 H       1  ZINC000435292384    0.0700
     34 H34        -2.1265    5.5426   51.9715 H       1  ZINC000435292384    0.0700
     35 H35        -3.8417    5.7429   51.5399 H       1  ZINC000435292384    0.0600
     36 H36        -4.8208    2.1197   52.3927 H       1  ZINC000435292384    0.0900
     37 H37        -5.2587    3.8538   52.4294 H       1  ZINC000435292384    0.0800
     38 H38        -7.0109    3.3251   54.3518 H       1  ZINC000435292384    0.0700
     39 H39        -7.4791    3.9229   52.7494 H       1  ZINC000435292384    0.0900
     40 H40        -9.2362    3.3759   55.1591 H       1  ZINC000435292384    0.0700
     41 H41        -9.1122    4.8545   54.1801 H       1  ZINC000435292384    0.0800
     42 H42       -11.0582    4.0237   53.3082 H       1  ZINC000435292384    0.0700
     43 H43        -9.9057    3.1623   52.2595 H       1  ZINC000435292384    0.0600
     44 H44       -10.7092    1.9698   54.9047 H       1  ZINC000435292384    0.0800
     45 H45       -11.8137    1.8476   53.5306 H       1  ZINC000435292384    0.0600
     46 H46       -12.1624   -0.8628   51.9897 H       1  ZINC000435292384    0.0800
     47 H47       -10.6238   -1.7353   51.7901 H       1  ZINC000435292384    0.0800
     48 H48       -11.9401   -2.4592   52.7450 H       1  ZINC000435292384    0.1000
     49 H49        -8.0759   -0.1173   53.6005 H       1  ZINC000435292384    0.0900
     50 H50        -8.5259    1.0530   54.8632 H       1  ZINC000435292384    0.0900
     51 H51        -5.9880    1.0246   49.7719 H       1  ZINC000435292384    0.1100
     52 H52        -6.7789    2.4250   48.9823 H       1  ZINC000435292384    0.1100
@<TRIPOS>BOND
     1     1     2    1
     2     1    26    1
     3     1    27    1
     4     1    28    1
     5     2     3    1
     6     2    29    1
     7     2    30    1
     8     3     4    1
     9     3    31    1
    10     3    32    1
    11     4     5    1
    12     4     6    1
    13     4     7    1
    14     6    33    1
    15     6    34    1
    16     6    35    1
    17     7    24   am
    18     7     8    1
    19     8     9    1
    20     8    36    1
    21     8    37    1
    22     9    10    1
    23     9    11    1
    24     9    23    1
    25    11    12    2
    26    11    13   am
    27    13    22    1
    28    13    14    1
    29    14    15    1
    30    14    38    1
    31    14    39    1
    32    15    16    1
    33    15    40    1
    34    15    41    1
    35    16    17    1
    36    16    42    1
    37    16    43    1
    38    17    18    1
    39    17    44    1
    40    17    45    1
    41    18    19    1
    42    18    20    1
    43    18    22    1
    44    20    21    1
    45    21    46    1
    46    21    47    1
    47    21    48    1
    48    22    49    1
    49    22    50    1
    50    23    24    1
    51    23    51    1
    52    23    52    1
    53    24    25    2
@<TRIPOS>SUBSTRUCTURE
     1 ZINC000435292384        1 TEMP              0 ****  ****    0 ROOT


##########                                Name:    ZINC000467104849
##########                DOCK_Rotatable_Bonds:                   6
##########                         Heavy_Atoms:                  29
##########                    Molecular_Weight:             421.896
##########                DOCK_Rotatable_Bonds:                   6
##########                       Formal_Charge:           0.0200002
##########                     HBond_Acceptors:                   7
##########                        HBond_Donors:                   0
##########                         Heavy_Atoms:                  29
##########                          Grid_Score:          -31.762989
##########                     Grid_vdw_energy:          -30.853951
##########                      Grid_es_energy:           -0.909038
##########           Internal_energy_repulsive:           69.779427

@<TRIPOS>MOLECULE
ZINC000467104849
 54 56 1 0 0
SMALL
USER_CHARGES


@<TRIPOS>ATOM
      1 C1        -10.6017    1.7949   54.2092 C.3     1  ZINC000467104849    0.0200
      2 O2        -10.7479    0.4407   53.7769 O.3     1  ZINC000467104849   -0.3000
      3 C3        -11.3553   -0.4198   54.6372 C.ar    1  ZINC000467104849    0.1000
      4 C4        -11.8434    0.0396   55.8494 C.ar    1  ZINC000467104849   -0.1700
      5 C5        -12.4611   -0.8366   56.7228 C.ar    1  ZINC000467104849   -0.1200
      6 C6        -12.5927   -2.1715   56.3896 C.ar    1  ZINC000467104849   -0.0800
      7 C7        -13.2663   -3.1222   57.3454 C.3     1  ZINC000467104849   -0.0400
      8 C8        -14.7543   -3.2204   57.0031 C.3     1  ZINC000467104849   -0.1300
      9 C9        -12.6234   -4.5054   57.2267 C.3     1  ZINC000467104849   -0.1600
     10 C10       -13.1076   -2.6137   58.7551 C.2     1  ZINC000467104849    0.5300
     11 O11       -14.0875   -2.4080   59.4395 O.2     1  ZINC000467104849   -0.5300
     12 N12       -11.8767   -2.3875   59.2552 N.am    1  ZINC000467104849   -0.6100
     13 C13       -10.6731   -2.6296   58.4440 C.3     1  ZINC000467104849    0.0600
     14 C14        -9.7882   -1.3795   58.5065 C.3     1  ZINC000467104849    0.0500
     15 O15        -9.5711   -1.0244   59.8742 O.3     1  ZINC000467104849   -0.3700
     16 C16       -10.7619   -0.6762   60.5846 C.3     1  ZINC000467104849    0.1300
     17 H17       -11.2608    0.1491   60.0766 H       1  ZINC000467104849    0.0800
     18 C18       -10.4070   -0.2618   61.9894 C.ar    1  ZINC000467104849   -0.0900
     19 C19        -9.1841   -0.6181   62.5262 C.ar    1  ZINC000467104849   -0.0500
     20 C20        -8.8568   -0.2389   63.8146 C.ar    1  ZINC000467104849   -0.1400
     21 C21        -9.7539    0.4984   64.5677 C.ar    1  ZINC000467104849    0.1200
     22 F22        -9.4348    0.8699   65.8268 F       1  ZINC000467104849   -0.1200
     23 C23       -10.9797    0.8556   64.0288 C.ar    1  ZINC000467104849   -0.0800
     24 Cl24      -12.1067    1.7804   64.9714 Cl      1  ZINC000467104849   -0.0400
     25 C25       -11.3025    0.4790   62.7380 C.ar    1  ZINC000467104849   -0.0700
     26 C26       -11.6968   -1.8851   60.6266 C.3     1  ZINC000467104849    0.0900
     27 C27       -12.1080   -2.6366   55.1808 C.ar    1  ZINC000467104849   -0.1600
     28 C28       -11.4929   -1.7630   54.2990 C.ar    1  ZINC000467104849    0.1100
     29 O29       -11.0157   -2.2188   53.1099 O.3     1  ZINC000467104849   -0.3000
     30 C30       -11.2024   -3.6066   52.8249 C.3     1  ZINC000467104849    0.0200
     31 H31       -10.1030    2.3728   53.4311 H       1  ZINC000467104849    0.1000
     32 H32       -11.5853    2.2220   54.4050 H       1  ZINC000467104849    0.0600
     33 H33       -10.0054    1.8229   55.1212 H       1  ZINC000467104849    0.0600
     34 H34       -11.7412    1.0820   56.1126 H       1  ZINC000467104849    0.1400
     35 H35       -12.8412   -0.4772   57.6677 H       1  ZINC000467104849    0.1300
     36 H36       -14.8715   -3.6707   56.0174 H       1  ZINC000467104849    0.0700
     37 H37       -15.2583   -3.8377   57.7469 H       1  ZINC000467104849    0.0700
     38 H38       -15.1934   -2.2227   57.0013 H       1  ZINC000467104849    0.0700
     39 H39       -11.5855   -4.4532   57.5558 H       1  ZINC000467104849    0.0700
     40 H40       -13.1674   -5.2138   57.8514 H       1  ZINC000467104849    0.0700
     41 H41       -12.6591   -4.8348   56.1883 H       1  ZINC000467104849    0.0700
     42 H42       -10.1280   -3.4855   58.8422 H       1  ZINC000467104849    0.0800
     43 H43       -10.9600   -2.8250   57.4107 H       1  ZINC000467104849    0.1100
     44 H44        -8.8312   -1.5865   58.0278 H       1  ZINC000467104849    0.1100
     45 H45       -10.2836   -0.5567   57.9910 H       1  ZINC000467104849    0.0600
     46 H46        -8.4839   -1.1934   61.9387 H       1  ZINC000467104849    0.1500
     47 H47        -7.9013   -0.5181   64.2336 H       1  ZINC000467104849    0.1500
     48 H48       -12.2574    0.7574   62.3172 H       1  ZINC000467104849    0.1500
     49 H49       -12.6610   -1.5893   61.0402 H       1  ZINC000467104849    0.1100
     50 H50       -11.2567   -2.6683   61.2438 H       1  ZINC000467104849    0.0800
     51 H51       -12.2122   -3.6800   54.9228 H       1  ZINC000467104849    0.1400
     52 H52       -10.7049   -4.2044   53.5886 H       1  ZINC000467104849    0.0600
     53 H53       -12.2679   -3.8364   52.8204 H       1  ZINC000467104849    0.0600
     54 H54       -10.7767   -3.8374   51.8483 H       1  ZINC000467104849    0.1000
@<TRIPOS>BOND
     1     1     2    1
     2     1    31    1
     3     1    32    1
     4     1    33    1
     5     2     3    1
     6     3    28   ar
     7     3     4   ar
     8     4     5   ar
     9     4    34    1
    10     5     6   ar
    11     5    35    1
    12     6     7    1
    13     6    27   ar
    14     7     8    1
    15     7     9    1
    16     7    10    1
    17     8    36    1
    18     8    37    1
    19     8    38    1
    20     9    39    1
    21     9    40    1
    22     9    41    1
    23    10    11    2
    24    10    12   am
    25    12    26    1
    26    12    13    1
    27    13    14    1
    28    13    42    1
    29    13    43    1
    30    14    15    1
    31    14    44    1
    32    14    45    1
    33    15    16    1
    34    16    17    1
    35    16    18    1
    36    16    26    1
    37    18    25   ar
    38    18    19   ar
    39    19    20   ar
    40    19    46    1
    41    20    21   ar
    42    20    47    1
    43    21    22    1
    44    21    23   ar
    45    23    24    1
    46    23    25   ar
    47    25    48    1
    48    26    49    1
    49    26    50    1
    50    27    28   ar
    51    27    51    1
    52    28    29    1
    53    29    30    1
    54    30    52    1
    55    30    53    1
    56    30    54    1
@<TRIPOS>SUBSTRUCTURE
     1 ZINC000467104849        1 TEMP              0 ****  ****    0 ROOT


##########                                Name:    ZINC000192150625
##########                DOCK_Rotatable_Bonds:                   5
##########                         Heavy_Atoms:                  28
##########                    Molecular_Weight:             377.443
##########                DOCK_Rotatable_Bonds:                   5
##########                       Formal_Charge:           0.0199997
##########                     HBond_Acceptors:                   6
##########                        HBond_Donors:                   1
##########                         Heavy_Atoms:                  28
##########                          Grid_Score:          -31.750669
##########                     Grid_vdw_energy:          -29.516993
##########                      Grid_es_energy:           -2.233676
##########           Internal_energy_repulsive:           22.383635

@<TRIPOS>MOLECULE
ZINC000192150625
 51 54 1 0 0
SMALL
USER_CHARGES


@<TRIPOS>ATOM
      1 C1         -8.6281    0.3815   52.4794 C.3     1  ZINC000192150625   -0.0800
      2 C2         -7.3304    0.8212   51.8517 C.2     1  ZINC000192150625    0.0400
      3 C3         -6.8157    2.0551   51.9392 C.2     1  ZINC000192150625   -0.1800
      4 C4         -7.4104    3.2345   52.6647 C.3     1  ZINC000192150625   -0.0800
      5 C5         -5.5556    2.0272   51.1864 C.ar    1  ZINC000192150625   -0.1000
      6 C6         -4.5703    2.9710   50.9037 C.ar    1  ZINC000192150625   -0.0700
      7 C7         -3.4744    2.6060   50.1407 C.ar    1  ZINC000192150625    0.1200
      8 N8         -2.4801    3.5466   49.8521 N.am    1  ZINC000192150625   -0.6400
      9 C9         -1.2917    3.4867   50.4850 C.2     1  ZINC000192150625    0.5100
     10 O10        -1.0842    2.6166   51.3055 O.2     1  ZINC000192150625   -0.4900
     11 C11        -0.2301    4.4910   50.1769 C.2     1  ZINC000192150625    0.5100
     12 O12        -0.3744    5.6486   50.5115 O.2     1  ZINC000192150625   -0.5200
     13 N13         0.8882    4.1116   49.5273 N.am    1  ZINC000192150625   -0.5800
     14 C14         1.0745    2.7151   49.1104 C.3     1  ZINC000192150625    0.0500
     15 C15         1.3890    2.6856   47.6115 C.3     1  ZINC000192150625   -0.1200
     16 C16         2.5895    3.5917   47.3282 C.3     1  ZINC000192150625   -0.0500
     17 C17         2.9229    3.5387   45.8595 C.ar    1  ZINC000192150625   -0.0300
     18 C18         3.4941    4.6291   45.2217 C.ar    1  ZINC000192150625   -0.1700
     19 C19         3.7863    4.5438   43.8735 C.ar    1  ZINC000192150625    0.1000
     20 N20         3.5274    3.4427   43.1956 N.ar    1  ZINC000192150625   -0.4900
     21 C21         2.9847    2.3865   43.7694 C.ar    1  ZINC000192150625    0.1000
     22 C22         2.6710    2.3963   45.1153 C.ar    1  ZINC000192150625   -0.1700
     23 C23         2.2488    5.0306   47.7222 C.3     1  ZINC000192150625   -0.1200
     24 C24         1.9414    5.0879   49.2170 C.3     1  ZINC000192150625    0.1100
     25 C25        -3.3600    1.3031   49.6600 C.ar    1  ZINC000192150625   -0.1100
     26 C26        -4.3306    0.3656   49.9361 C.ar    1  ZINC000192150625   -0.0800
     27 C27        -5.4373    0.7141   50.7003 C.ar    1  ZINC000192150625    0.0500
     28 O28        -6.5191    0.0305   51.1281 O.3     1  ZINC000192150625   -0.1900
     29 H29        -8.8024   -0.6707   52.2544 H       1  ZINC000192150625    0.0800
     30 H30        -8.5740    0.5180   53.5594 H       1  ZINC000192150625    0.0900
     31 H31        -9.4466    0.9792   52.0781 H       1  ZINC000192150625    0.0900
     32 H32        -7.0499    3.2477   53.6933 H       1  ZINC000192150625    0.0700
     33 H33        -7.1142    4.1562   52.1640 H       1  ZINC000192150625    0.0700
     34 H34        -8.4973    3.1525   52.6617 H       1  ZINC000192150625    0.0700
     35 H35        -4.6612    3.9804   51.2770 H       1  ZINC000192150625    0.1400
     36 H36        -2.6458    4.2420   49.1964 H       1  ZINC000192150625    0.4300
     37 H37         1.9027    2.2752   49.6662 H       1  ZINC000192150625    0.0700
     38 H38         0.1619    2.1512   49.3035 H       1  ZINC000192150625    0.1600
     39 H39         1.6239    1.6651   47.3089 H       1  ZINC000192150625    0.0800
     40 H40         0.5244    3.0416   47.0513 H       1  ZINC000192150625    0.0700
     41 H41         3.4470    3.2500   47.9079 H       1  ZINC000192150625    0.0900
     42 H42         3.7079    5.5339   45.7713 H       1  ZINC000192150625    0.1300
     43 H43         4.2313    5.3888   43.3693 H       1  ZINC000192150625    0.1600
     44 H44         2.7869    1.5024   43.1816 H       1  ZINC000192150625    0.1600
     45 H45         2.2271    1.5280   45.5796 H       1  ZINC000192150625    0.1300
     46 H46         3.0959    5.6793   47.4986 H       1  ZINC000192150625    0.0800
     47 H47         1.3761    5.3646   47.1609 H       1  ZINC000192150625    0.0700
     48 H48         1.6027    6.0894   49.4824 H       1  ZINC000192150625    0.1000
     49 H49         2.8388    4.8411   49.7844 H       1  ZINC000192150625    0.0800
     50 H50        -2.5024    1.0259   49.0650 H       1  ZINC000192150625    0.1400
     51 H51        -4.2314   -0.6412   49.5583 H       1  ZINC000192150625    0.1400
@<TRIPOS>BOND
     1     1     2    1
     2     1    29    1
     3     1    30    1
     4     1    31    1
     5     2    28    1
     6     2     3    2
     7     3     4    1
     8     3     5    1
     9     4    32    1
    10     4    33    1
    11     4    34    1
    12     5    27   ar
    13     5     6   ar
    14     6     7   ar
    15     6    35    1
    16     7     8    1
    17     7    25   ar
    18     8     9   am
    19     8    36    1
    20     9    10    2
    21     9    11    1
    22    11    12    2
    23    11    13   am
    24    13    24    1
    25    13    14    1
    26    14    15    1
    27    14    37    1
    28    14    38    1
    29    15    16    1
    30    15    39    1
    31    15    40    1
    32    16    17    1
    33    16    23    1
    34    16    41    1
    35    17    22   ar
    36    17    18   ar
    37    18    19   ar
    38    18    42    1
    39    19    20   ar
    40    19    43    1
    41    20    21   ar
    42    21    22   ar
    43    21    44    1
    44    22    45    1
    45    23    24    1
    46    23    46    1
    47    23    47    1
    48    24    48    1
    49    24    49    1
    50    25    26   ar
    51    25    50    1
    52    26    27   ar
    53    26    51    1
    54    27    28    1
@<TRIPOS>SUBSTRUCTURE
     1 ZINC000192150625        1 TEMP              0 ****  ****    0 ROOT


##########                                Name:    ZINC001002468398
##########                DOCK_Rotatable_Bonds:                   7
##########                         Heavy_Atoms:                  24
##########                    Molecular_Weight:             341.358
##########                DOCK_Rotatable_Bonds:                   7
##########                       Formal_Charge:           0.0100001
##########                     HBond_Acceptors:                   8
##########                        HBond_Donors:                   0
##########                         Heavy_Atoms:                  24
##########                          Grid_Score:          -31.722136
##########                     Grid_vdw_energy:          -30.252586
##########                      Grid_es_energy:           -1.469550
##########           Internal_energy_repulsive:           19.884531

@<TRIPOS>MOLECULE
ZINC001002468398
 45 47 1 0 0
SMALL
USER_CHARGES


@<TRIPOS>ATOM
      1 C1         -9.2468    0.6298   56.0355 C.3     1  ZINC001002468398   -0.1400
      2 C2        -10.4983    0.6062   55.1557 C.3     1  ZINC001002468398   -0.0500
      3 C3        -10.3768   -0.4996   54.1390 C.2     1  ZINC001002468398    0.0500
      4 C4         -9.7945   -0.4113   52.9122 C.2     1  ZINC001002468398   -0.0800
      5 C5         -9.1629    0.7849   52.3264 C.2     1  ZINC001002468398    0.6000
      6 O6         -9.7057    1.8687   52.4244 O.2     1  ZINC001002468398   -0.5300
      7 N7         -7.9838    0.6775   51.6823 N.am    1  ZINC001002468398   -0.6000
      8 C8         -7.3300   -0.6282   51.5643 C.3     1  ZINC001002468398    0.0900
      9 C9         -7.3562    1.8663   51.1003 C.3     1  ZINC001002468398    0.1000
     10 C10        -6.2205    2.3402   52.0094 C.3     1  ZINC001002468398    0.1300
     11 H11        -5.9024    1.5258   52.6603 H       1  ZINC001002468398    0.0800
     12 C12        -6.6939    3.5377   52.8600 C.3     1  ZINC001002468398   -0.1300
     13 C13        -5.4435    4.4556   52.8940 C.3     1  ZINC001002468398   -0.1300
     14 C14        -4.8546    4.2318   51.4789 C.3     1  ZINC001002468398    0.1000
     15 N15        -5.0866    2.8006   51.1946 N.am    1  ZINC001002468398   -0.6100
     16 C16        -4.3779    2.0463   50.3312 C.2     1  ZINC001002468398    0.5600
     17 O17        -4.6583    0.8765   50.1765 O.2     1  ZINC001002468398   -0.5100
     18 C18        -3.2373    2.6565   49.5581 C.3     1  ZINC001002468398   -0.2000
     19 H19        -3.5187    3.4049   48.8172 H       1  ZINC001002468398    0.1500
     20 C20        -2.0417    1.7580   49.2356 C.3     1  ZINC001002468398   -0.1500
     21 C21        -1.9111    2.8556   50.2946 C.3     1  ZINC001002468398    0.2300
     22 F22        -1.1522    3.9838   49.9653 F       1  ZINC001002468398   -0.1500
     23 F23        -1.8499    2.4567   51.6342 F       1  ZINC001002468398   -0.1400
     24 N24        -9.9045   -1.6355   52.3281 N.2     1  ZINC001002468398   -0.4600
     25 C25       -10.5203   -2.4305   53.1509 C.2     1  ZINC001002468398    0.1700
     26 O26       -10.8173   -1.7607   54.2735 O.3     1  ZINC001002468398   -0.2000
     27 H27        -9.1456   -0.3263   56.5491 H       1  ZINC001002468398    0.0600
     28 H28        -8.3686    0.8030   55.4135 H       1  ZINC001002468398    0.0600
     29 H29        -9.3347    1.4296   56.7709 H       1  ZINC001002468398    0.0700
     30 H30       -11.3765    0.4331   55.7777 H       1  ZINC001002468398    0.1200
     31 H31       -10.5995    1.5623   54.6422 H       1  ZINC001002468398    0.0900
     32 H32        -7.9605   -1.2988   50.9804 H       1  ZINC001002468398    0.0700
     33 H33        -6.3676   -0.5089   51.0665 H       1  ZINC001002468398    0.0700
     34 H34        -7.1754   -1.0483   52.5581 H       1  ZINC001002468398    0.0700
     35 H35        -6.9558    1.6211   50.1165 H       1  ZINC001002468398    0.0900
     36 H36        -8.0985    2.6585   51.0033 H       1  ZINC001002468398    0.0900
     37 H37        -7.5313    4.0444   52.3803 H       1  ZINC001002468398    0.1000
     38 H38        -6.9623    3.2142   53.8656 H       1  ZINC001002468398    0.0800
     39 H39        -5.7278    5.4979   53.0385 H       1  ZINC001002468398    0.0900
     40 H40        -4.7428    4.1331   53.6643 H       1  ZINC001002468398    0.0800
     41 H41        -5.3733    4.8537   50.7493 H       1  ZINC001002468398    0.0800
     42 H42        -3.7866    4.4499   51.4735 H       1  ZINC001002468398    0.0800
     43 H43        -2.0801    0.7254   49.5827 H       1  ZINC001002468398    0.1300
     44 H44        -1.5363    1.9153   48.2828 H       1  ZINC001002468398    0.1400
     45 H45       -10.7522   -3.4682   52.9620 H       1  ZINC001002468398    0.2600
@<TRIPOS>BOND
     1     1     2    1
     2     1    27    1
     3     1    28    1
     4     1    29    1
     5     2     3    1
     6     2    30    1
     7     2    31    1
     8     3    26    1
     9     3     4    2
    10     4     5    1
    11     4    24    1
    12     5     6    2
    13     5     7   am
    14     7     8    1
    15     7     9    1
    16     8    32    1
    17     8    33    1
    18     8    34    1
    19     9    10    1
    20     9    35    1
    21     9    36    1
    22    10    11    1
    23    10    15    1
    24    10    12    1
    25    12    13    1
    26    12    37    1
    27    12    38    1
    28    13    14    1
    29    13    39    1
    30    13    40    1
    31    14    15    1
    32    14    41    1
    33    14    42    1
    34    15    16   am
    35    16    17    2
    36    16    18    1
    37    18    19    1
    38    18    21    1
    39    18    20    1
    40    20    21    1
    41    20    43    1
    42    20    44    1
    43    21    22    1
    44    21    23    1
    45    24    25    2
    46    25    26    1
    47    25    45    1
@<TRIPOS>SUBSTRUCTURE
     1 ZINC001002468398        1 TEMP              0 ****  ****    0 ROOT


##########                                Name:    ZINC001009116151
##########                DOCK_Rotatable_Bonds:                   6
##########                         Heavy_Atoms:                  25
##########                    Molecular_Weight:             342.481
##########                DOCK_Rotatable_Bonds:                   6
##########                       Formal_Charge:           0.0600006
##########                     HBond_Acceptors:                   4
##########                        HBond_Donors:                   1
##########                         Heavy_Atoms:                  25
##########                          Grid_Score:          -31.721519
##########                     Grid_vdw_energy:          -30.552650
##########                      Grid_es_energy:           -1.168869
##########           Internal_energy_repulsive:            9.542642

@<TRIPOS>MOLECULE
ZINC001009116151
 55 59 1 0 0
SMALL
USER_CHARGES


@<TRIPOS>ATOM
      1 O1        -11.0589   -2.2953   56.4782 O.2     1  ZINC001009116151   -0.5400
      2 C2        -10.8056   -1.2415   57.0226 C.2     1  ZINC001009116151    0.5200
      3 N3        -10.5777   -0.1385   56.2824 N.am    1  ZINC001009116151   -0.7300
      4 C4        -10.6299   -0.2137   54.8203 C.3     1  ZINC001009116151    0.1500
      5 C5         -9.7915    0.9171   54.2211 C.3     1  ZINC001009116151   -0.1200
      6 H6        -10.3301    1.8418   54.0137 H       1  ZINC001009116151    0.1100
      7 C7         -8.6642    0.5275   53.2628 C.3     1  ZINC001009116151   -0.1700
      8 H8         -8.5337   -0.5179   52.9834 H       1  ZINC001009116151    0.1200
      9 C9         -8.1355    1.6006   52.2866 C.3     1  ZINC001009116151    0.1300
     10 N10        -7.0852    2.3147   53.0493 N.am    1  ZINC001009116151   -0.6200
     11 C11        -5.8960    2.7614   52.5991 C.2     1  ZINC001009116151    0.5500
     12 O12        -5.1372    3.3318   53.3539 O.2     1  ZINC001009116151   -0.5300
     13 C13        -5.5093    2.5522   51.1577 C.3     1  ZINC001009116151   -0.1200
     14 C14        -4.4997    3.6269   50.6921 C.3     1  ZINC001009116151   -0.0900
     15 C15        -3.1424    3.0025   50.9183 C.2     1  ZINC001009116151   -0.1800
     16 C16        -3.2403    1.7109   51.0796 C.2     1  ZINC001009116151   -0.1500
     17 C17        -4.6791    1.2587   50.9879 C.3     1  ZINC001009116151   -0.0900
     18 C18        -7.6386    2.4262   54.4190 C.3     1  ZINC001009116151    0.1200
     19 C19        -8.3370    1.0362   54.6806 C.3     1  ZINC001009116151   -0.1600
     20 H20        -7.9250    0.4039   55.4670 H       1  ZINC001009116151    0.1300
     21 C21       -10.7518   -1.1641   58.5266 C.3     1  ZINC001009116151   -0.0700
     22 C22       -11.9420   -1.9211   59.1192 C.3     1  ZINC001009116151   -0.1100
     23 C23       -11.8874   -1.8425   60.6462 C.3     1  ZINC001009116151   -0.1100
     24 C24       -10.6607   -1.0331   61.0716 C.3     1  ZINC001009116151   -0.0900
     25 C25        -9.3940   -1.7147   60.5504 C.3     1  ZINC001009116151   -0.1100
     26 C26        -9.4487   -1.7933   59.0234 C.3     1  ZINC001009116151   -0.0900
     27 C27       -10.7553    0.3794   60.4912 C.3     1  ZINC001009116151   -0.1100
     28 C28       -10.8100    0.3008   58.9642 C.3     1  ZINC001009116151   -0.1000
     29 H29       -10.3789    0.7052   56.7178 H       1  ZINC001009116151    0.4000
     30 H30       -10.2329   -1.1740   54.4915 H       1  ZINC001009116151    0.0800
     31 H31       -11.6634   -0.1150   54.4882 H       1  ZINC001009116151    0.0700
     32 H32        -7.7088    1.1310   51.4004 H       1  ZINC001009116151    0.0900
     33 H33        -8.9349    2.2867   52.0067 H       1  ZINC001009116151    0.0800
     34 H34        -6.3906    2.5384   50.5164 H       1  ZINC001009116151    0.1100
     35 H35        -4.6434    3.8504   49.6350 H       1  ZINC001009116151    0.0900
     36 H36        -4.6057    4.5319   51.2903 H       1  ZINC001009116151    0.0800
     37 H37        -2.2134    3.5525   50.9429 H       1  ZINC001009116151    0.1300
     38 H38        -2.4028    1.0520   51.2551 H       1  ZINC001009116151    0.1300
     39 H39        -4.9072    0.5535   51.7871 H       1  ZINC001009116151    0.0900
     40 H40        -4.8740    0.8073   50.0151 H       1  ZINC001009116151    0.0900
     41 H41        -6.8370    2.5796   55.1415 H       1  ZINC001009116151    0.0900
     42 H42        -8.3604    3.2413   54.4721 H       1  ZINC001009116151    0.0800
     43 H43       -12.8703   -1.4728   58.7653 H       1  ZINC001009116151    0.0700
     44 H44       -11.9005   -2.9647   58.8073 H       1  ZINC001009116151    0.0700
     45 H45       -12.7898   -1.3567   61.0175 H       1  ZINC001009116151    0.0700
     46 H46       -11.8199   -2.8487   61.0597 H       1  ZINC001009116151    0.0700
     47 H47       -10.6218   -0.9770   62.1595 H       1  ZINC001009116151    0.0700
     48 H48        -8.5201   -1.1380   60.8535 H       1  ZINC001009116151    0.0700
     49 H49        -9.3266   -2.7210   60.9638 H       1  ZINC001009116151    0.0700
     50 H50        -9.4072   -2.8370   58.7117 H       1  ZINC001009116151    0.0700
     51 H51        -8.6007   -1.2541   58.6012 H       1  ZINC001009116151    0.0700
     52 H52       -11.6578    0.8652   60.8625 H       1  ZINC001009116151    0.0700
     53 H53        -9.8814    0.9561   60.7943 H       1  ZINC001009116151    0.0700
     54 H54        -9.9620    0.8401   58.5421 H       1  ZINC001009116151    0.0700
     55 H55       -11.7383    0.7492   58.6103 H       1  ZINC001009116151    0.0700
@<TRIPOS>BOND
     1     1     2    2
     2     2     3   am
     3     2    21    1
     4     3     4    1
     5     3    29    1
     6     4     5    1
     7     4    30    1
     8     4    31    1
     9     5     6    1
    10     5    19    1
    11     5     7    1
    12     7     8    1
    13     7    19    1
    14     7     9    1
    15     9    10    1
    16     9    32    1
    17     9    33    1
    18    10    11   am
    19    10    18    1
    20    11    12    2
    21    11    13    1
    22    13    17    1
    23    13    14    1
    24    13    34    1
    25    14    15    1
    26    14    35    1
    27    14    36    1
    28    15    16    2
    29    15    37    1
    30    16    17    1
    31    16    38    1
    32    17    39    1
    33    17    40    1
    34    18    19    1
    35    18    41    1
    36    18    42    1
    37    19    20    1
    38    21    26    1
    39    21    28    1
    40    21    22    1
    41    22    23    1
    42    22    43    1
    43    22    44    1
    44    23    24    1
    45    23    45    1
    46    23    46    1
    47    24    25    1
    48    24    27    1
    49    24    47    1
    50    25    26    1
    51    25    48    1
    52    25    49    1
    53    26    50    1
    54    26    51    1
    55    27    28    1
    56    27    52    1
    57    27    53    1
    58    28    54    1
    59    28    55    1
@<TRIPOS>SUBSTRUCTURE
     1 ZINC001009116151        1 TEMP              0 ****  ****    0 ROOT


##########                                Name:    ZINC000077537368
##########                DOCK_Rotatable_Bonds:                   5
##########                         Heavy_Atoms:                  27
##########                    Molecular_Weight:             365.478
##########                DOCK_Rotatable_Bonds:                   5
##########                       Formal_Charge:          -0.0400007
##########                     HBond_Acceptors:                   6
##########                        HBond_Donors:                   0
##########                         Heavy_Atoms:                  27
##########                          Grid_Score:          -31.718214
##########                     Grid_vdw_energy:          -31.053629
##########                      Grid_es_energy:           -0.664585
##########           Internal_energy_repulsive:           10.315446

@<TRIPOS>MOLECULE
ZINC000077537368
 54 56 1 0 0
SMALL
USER_CHARGES


@<TRIPOS>ATOM
      1 C1        -11.9079   -1.1398   53.8528 C.3     1  ZINC000077537368    0.0800
      2 N2        -11.4176   -0.9048   55.2132 N.pl3   1  ZINC000077537368   -0.2600
      3 N3        -11.3895   -1.7814   56.1516 N.2     1  ZINC000077537368   -0.2700
      4 C4        -10.8977   -1.2723   57.2522 C.2     1  ZINC000077537368    0.0400
      5 C5        -10.7103   -1.9984   58.5593 C.3     1  ZINC000077537368    0.0200
      6 C6         -9.4122   -1.5310   59.2209 C.3     1  ZINC000077537368   -0.1400
      7 C7        -11.8913   -1.6968   59.4842 C.3     1  ZINC000077537368   -0.1400
      8 C8        -10.6371   -3.5045   58.3003 C.3     1  ZINC000077537368   -0.1400
      9 C9        -10.5765    0.0635   57.0001 C.2     1  ZINC000077537368   -0.2000
     10 C10       -10.9151    0.2783   55.6755 C.2     1  ZINC000077537368   -0.0400
     11 C11       -10.7711    1.5324   54.9191 C.2     1  ZINC000077537368    0.5900
     12 O12       -11.6908    2.3274   54.8789 O.2     1  ZINC000077537368   -0.5400
     13 N13        -9.6201    1.8000   54.2709 N.am    1  ZINC000077537368   -0.6000
     14 C14        -8.4979    0.8498   54.3015 C.3     1  ZINC000077537368    0.0800
     15 C15        -8.0403    0.5905   52.8622 C.3     1  ZINC000077537368    0.0400
     16 N16        -7.7512    1.8723   52.2052 N.3     1  ZINC000077537368   -0.5300
     17 C17        -7.1467    1.6615   50.8831 C.3     1  ZINC000077537368    0.0900
     18 C18        -5.7215    2.1509   50.8986 C.ar    1  ZINC000077537368   -0.0500
     19 C19        -5.4601    3.5093   50.9335 C.ar    1  ZINC000077537368   -0.1200
     20 C20        -4.1579    3.9641   50.9475 C.ar    1  ZINC000077537368   -0.0700
     21 C21        -3.1023    3.0504   50.9268 C.ar    1  ZINC000077537368   -0.0300
     22 C22        -1.7481    3.5154   50.9417 C.1     1  ZINC000077537368    0.2500
     23 N23        -0.6737    3.8843   50.9534 N.1     1  ZINC000077537368   -0.4100
     24 C24        -3.3733    1.6810   50.8920 C.ar    1  ZINC000077537368   -0.0700
     25 C25        -4.6803    1.2398   50.8837 C.ar    1  ZINC000077537368   -0.1000
     26 C26        -8.9578    2.7042   52.1060 C.3     1  ZINC000077537368    0.0400
     27 C27        -9.4552    3.0474   53.5092 C.3     1  ZINC000077537368    0.1200
     28 H28       -11.0692   -1.3867   53.2019 H       1  ZINC000077537368    0.0800
     29 H29       -12.6178   -1.9669   53.8603 H       1  ZINC000077537368    0.1000
     30 H30       -12.4016   -0.2407   53.4841 H       1  ZINC000077537368    0.1100
     31 H31        -9.4644   -0.4580   59.4054 H       1  ZINC000077537368    0.0600
     32 H32        -9.2767   -2.0562   60.1663 H       1  ZINC000077537368    0.0600
     33 H33        -8.5709   -1.7460   58.5620 H       1  ZINC000077537368    0.0600
     34 H34       -12.8160   -2.0297   59.0129 H       1  ZINC000077537368    0.0600
     35 H35       -11.7558   -2.2219   60.4296 H       1  ZINC000077537368    0.0600
     36 H36       -11.9434   -0.6237   59.6687 H       1  ZINC000077537368    0.0600
     37 H37        -9.7958   -3.7194   57.6415 H       1  ZINC000077537368    0.0600
     38 H38       -10.5016   -4.0297   59.2458 H       1  ZINC000077537368    0.0600
     39 H39       -11.5619   -3.8375   57.8291 H       1  ZINC000077537368    0.0600
     40 H40       -10.1510    0.7762   57.6910 H       1  ZINC000077537368    0.1700
     41 H41        -7.6748    1.2736   54.8767 H       1  ZINC000077537368    0.0800
     42 H42        -8.8228   -0.0859   54.7566 H       1  ZINC000077537368    0.1200
     43 H43        -7.1404   -0.0244   52.8718 H       1  ZINC000077537368    0.0900
     44 H44        -8.8296    0.0724   52.3173 H       1  ZINC000077537368    0.0400
     45 H45        -7.1633    0.5989   50.6412 H       1  ZINC000077537368    0.0900
     46 H46        -7.7123    2.2139   50.1328 H       1  ZINC000077537368    0.0500
     47 H47        -6.2775    4.2150   50.9495 H       1  ZINC000077537368    0.1300
     48 H48        -3.9553    5.0247   50.9740 H       1  ZINC000077537368    0.1300
     49 H49        -2.5616    0.9689   50.8759 H       1  ZINC000077537368    0.1300
     50 H50        -4.8913    0.1810   50.8572 H       1  ZINC000077537368    0.1400
     51 H51        -8.7232    3.6223   51.5672 H       1  ZINC000077537368    0.1000
     52 H52        -9.7342    2.1568   51.5716 H       1  ZINC000077537368    0.0400
     53 H53       -10.4113    3.5664   53.4420 H       1  ZINC000077537368    0.1000
     54 H54        -8.7253    3.6823   54.0114 H       1  ZINC000077537368    0.0800
@<TRIPOS>BOND
     1     1     2    1
     2     1    28    1
     3     1    29    1
     4     1    30    1
     5     2    10    1
     6     2     3    1
     7     3     4    2
     8     4     5    1
     9     4     9    1
    10     5     6    1
    11     5     7    1
    12     5     8    1
    13     6    31    1
    14     6    32    1
    15     6    33    1
    16     7    34    1
    17     7    35    1
    18     7    36    1
    19     8    37    1
    20     8    38    1
    21     8    39    1
    22     9    10    2
    23     9    40    1
    24    10    11    1
    25    11    12    2
    26    11    13   am
    27    13    27    1
    28    13    14    1
    29    14    15    1
    30    14    41    1
    31    14    42    1
    32    15    16    1
    33    15    43    1
    34    15    44    1
    35    16    17    1
    36    16    26    1
    37    17    18    1
    38    17    45    1
    39    17    46    1
    40    18    25   ar
    41    18    19   ar
    42    19    20   ar
    43    19    47    1
    44    20    21   ar
    45    20    48    1
    46    21    22    1
    47    21    24   ar
    48    22    23    3
    49    24    25   ar
    50    24    49    1
    51    25    50    1
    52    26    27    1
    53    26    51    1
    54    26    52    1
    55    27    53    1
    56    27    54    1
@<TRIPOS>SUBSTRUCTURE
     1 ZINC000077537368        1 TEMP              0 ****  ****    0 ROOT


##########                                Name:    ZINC001356153960
##########                DOCK_Rotatable_Bonds:                   8
##########                         Heavy_Atoms:                  24
##########                    Molecular_Weight:             334.366
##########                DOCK_Rotatable_Bonds:                   8
##########                       Formal_Charge:           0.0100003
##########                     HBond_Acceptors:                   6
##########                        HBond_Donors:                   1
##########                         Heavy_Atoms:                  24
##########                          Grid_Score:          -31.686157
##########                     Grid_vdw_energy:          -29.551416
##########                      Grid_es_energy:           -2.134740
##########           Internal_energy_repulsive:           12.966851

@<TRIPOS>MOLECULE
ZINC001356153960
 44 46 1 0 0
SMALL
USER_CHARGES


@<TRIPOS>ATOM
      1 O1         -3.4115    2.5339   48.7354 O.2     1  ZINC001356153960   -0.5200
      2 C2         -3.1856    1.9306   49.7638 C.2     1  ZINC001356153960    0.5100
      3 N3         -1.9208    1.5903   50.0815 N.am    1  ZINC001356153960   -0.7000
      4 C4         -0.8180    1.9542   49.1884 C.3     1  ZINC001356153960    0.1300
      5 C5          0.4177    2.3040   50.0201 C.3     1  ZINC001356153960   -0.0800
      6 H6          0.1924    3.1174   50.7098 H       1  ZINC001356153960    0.0900
      7 C7          0.9028    1.0902   50.7782 C.2     1  ZINC001356153960   -0.1700
      8 C8          2.1998    0.9708   50.6937 C.2     1  ZINC001356153960   -0.1600
      9 C9          2.7960    2.0851   49.8654 C.3     1  ZINC001356153960   -0.1000
     10 C10         1.5963    2.6912   49.0971 C.3     1  ZINC001356153960   -0.1200
     11 C11        -4.3105    1.5593   50.6748 C.2     1  ZINC001356153960    0.5100
     12 O12        -4.6442    0.3978   50.7849 O.2     1  ZINC001356153960   -0.5100
     13 N13        -4.9545    2.5146   51.3743 N.am    1  ZINC001356153960   -0.5500
     14 C14        -6.0573    2.1507   52.2675 C.3     1  ZINC001356153960    0.1300
     15 C15        -7.2725    2.9740   51.9265 C.ar    1  ZINC001356153960   -0.1600
     16 C16        -7.7471    3.9102   52.8253 C.ar    1  ZINC001356153960   -0.0300
     17 C17        -8.8583    4.6700   52.5115 C.ar    1  ZINC001356153960   -0.1700
     18 C18        -9.5040    4.4860   51.3007 C.ar    1  ZINC001356153960    0.1400
     19 F19       -10.5931    5.2252   50.9964 F       1  ZINC001356153960   -0.1300
     20 C20        -9.0328    3.5444   50.4017 C.ar    1  ZINC001356153960   -0.2000
     21 C21        -7.9168    2.7882   50.7146 C.ar    1  ZINC001356153960    0.1500
     22 F22        -7.4562    1.8687   49.8385 F       1  ZINC001356153960   -0.1200
     23 C23        -4.5517    3.9169   51.2416 C.3     1  ZINC001356153960    0.0700
     24 C24        -3.2535    4.3469   51.9278 C.3     1  ZINC001356153960   -0.1900
     25 C25        -4.6037    4.7888   52.4978 C.3     1  ZINC001356153960   -0.1800
     26 H26        -1.7407    1.1045   50.9015 H       1  ZINC001356153960    0.4100
     27 H27        -0.5889    1.1140   48.5329 H       1  ZINC001356153960    0.0800
     28 H28        -1.1069    2.8160   48.5868 H       1  ZINC001356153960    0.0800
     29 H29         0.2606    0.4105   51.3185 H       1  ZINC001356153960    0.1200
     30 H30         2.7718    0.1794   51.1550 H       1  ZINC001356153960    0.1300
     31 H31         3.2504    2.8368   50.5108 H       1  ZINC001356153960    0.0800
     32 H32         3.5342    1.6873   49.1689 H       1  ZINC001356153960    0.0700
     33 H33         1.4901    2.2331   48.1137 H       1  ZINC001356153960    0.0800
     34 H34         1.6892    3.7741   49.0144 H       1  ZINC001356153960    0.0800
     35 H35        -6.2894    1.0928   52.1459 H       1  ZINC001356153960    0.0900
     36 H36        -5.7666    2.3426   53.3004 H       1  ZINC001356153960    0.1400
     37 H37        -7.2469    4.0511   53.7721 H       1  ZINC001356153960    0.1600
     38 H38        -9.2259    5.4042   53.2131 H       1  ZINC001356153960    0.1400
     39 H39        -9.5360    3.3999   49.4572 H       1  ZINC001356153960    0.1500
     40 H40        -4.7986    4.3890   50.2907 H       1  ZINC001356153960    0.1400
     41 H41        -2.6992    3.5865   52.4780 H       1  ZINC001356153960    0.1400
     42 H42        -2.6467    5.1022   51.4285 H       1  ZINC001356153960    0.0900
     43 H43        -4.8845    5.8346   52.3731 H       1  ZINC001356153960    0.1000
     44 H44        -4.9378    4.3191   53.4230 H       1  ZINC001356153960    0.0900
@<TRIPOS>BOND
     1     1     2    2
     2     2     3   am
     3     2    11    1
     4     3     4    1
     5     3    26    1
     6     4     5    1
     7     4    27    1
     8     4    28    1
     9     5     6    1
    10     5    10    1
    11     5     7    1
    12     7     8    2
    13     7    29    1
    14     8     9    1
    15     8    30    1
    16     9    10    1
    17     9    31    1
    18     9    32    1
    19    10    33    1
    20    10    34    1
    21    11    12    2
    22    11    13   am
    23    13    14    1
    24    13    23    1
    25    14    15    1
    26    14    35    1
    27    14    36    1
    28    15    21   ar
    29    15    16   ar
    30    16    17   ar
    31    16    37    1
    32    17    18   ar
    33    17    38    1
    34    18    19    1
    35    18    20   ar
    36    20    21   ar
    37    20    39    1
    38    21    22    1
    39    23    25    1
    40    23    24    1
    41    23    40    1
    42    24    25    1
    43    24    41    1
    44    24    42    1
    45    25    43    1
    46    25    44    1
@<TRIPOS>SUBSTRUCTURE
     1 ZINC001356153960        1 TEMP              0 ****  ****    0 ROOT


##########                                Name:    ZINC001060733018
##########                DOCK_Rotatable_Bonds:                   7
##########                         Heavy_Atoms:                  24
##########                    Molecular_Weight:             342.429
##########                DOCK_Rotatable_Bonds:                   7
##########                       Formal_Charge:           0.0200001
##########                     HBond_Acceptors:                   6
##########                        HBond_Donors:                   2
##########                         Heavy_Atoms:                  24
##########                          Grid_Score:          -31.675545
##########                     Grid_vdw_energy:          -29.917665
##########                      Grid_es_energy:           -1.757880
##########           Internal_energy_repulsive:            9.890320

@<TRIPOS>MOLECULE
ZINC001060733018
 52 54 1 0 0
SMALL
USER_CHARGES


@<TRIPOS>ATOM
      1 O1          3.2558    1.2890   46.6422 O.2     1  ZINC001060733018   -0.5000
      2 C2          2.8135    2.4154   46.5621 C.2     1  ZINC001060733018    0.4700
      3 N3          2.6486    3.1554   47.6765 N.am    1  ZINC001060733018   -0.7100
      4 C4          2.9997    2.5976   48.9849 C.3     1  ZINC001060733018    0.1200
      5 C5          1.7250    2.3618   49.7975 C.3     1  ZINC001060733018   -0.1000
      6 H6          1.9693    1.8079   50.7040 H       1  ZINC001060733018    0.0800
      7 C7          1.1041    3.7085   50.1744 C.3     1  ZINC001060733018   -0.1100
      8 C8         -0.1706    3.4726   50.9871 C.3     1  ZINC001060733018   -0.1300
      9 C9         -1.1672    2.6678   50.1505 C.3     1  ZINC001060733018    0.1400
     10 H10        -1.4115    3.2217   49.2441 H       1  ZINC001060733018    0.0900
     11 N11        -2.3878    2.4421   50.9287 N.am    1  ZINC001060733018   -0.7300
     12 C12        -3.5807    2.3706   50.3056 C.2     1  ZINC001060733018    0.5200
     13 O13        -3.6436    2.4917   49.1005 O.2     1  ZINC001060733018   -0.5400
     14 C14        -4.8364    2.1402   51.1063 C.3     1  ZINC001060733018   -0.1000
     15 H15        -4.5713    1.8180   52.1133 H       1  ZINC001060733018    0.1000
     16 C16        -5.6809    1.0588   50.4306 C.3     1  ZINC001060733018   -0.1100
     17 C17        -6.9214    0.7660   51.2757 C.3     1  ZINC001060733018   -0.1200
     18 C18        -7.7921    2.0236   51.3566 C.3     1  ZINC001060733018   -0.0800
     19 C19        -6.9524    3.1721   51.9235 C.3     1  ZINC001060733018   -0.1300
     20 C20        -6.9690    3.3841   53.4371 C.3     1  ZINC001060733018   -0.1700
     21 C21        -7.6933    4.3695   52.5173 C.3     1  ZINC001060733018   -0.1700
     22 C22        -5.6400    3.4420   51.1817 C.3     1  ZINC001060733018   -0.0600
     23 C23        -0.5463    1.3212   49.7735 C.3     1  ZINC001060733018   -0.1200
     24 C24         0.7284    1.5570   48.9609 C.3     1  ZINC001060733018   -0.1100
     25 C25         2.4540    2.9899   45.2162 C.3     1  ZINC001060733018    0.2600
     26 F26         2.6391    4.3765   45.2366 F       1  ZINC001060733018   -0.1700
     27 F27         3.2739    2.4244   44.2336 F       1  ZINC001060733018   -0.1900
     28 H28         2.2974    4.0573   47.6122 H       1  ZINC001060733018    0.4100
     29 H29         3.5234    1.6515   48.8478 H       1  ZINC001060733018    0.0800
     30 H30         3.6454    3.2966   49.5164 H       1  ZINC001060733018    0.0800
     31 H31         1.8141    4.2818   50.7704 H       1  ZINC001060733018    0.0700
     32 H32         0.8599    4.2624   49.2680 H       1  ZINC001060733018    0.0700
     33 H33        -0.6130    4.4319   51.2556 H       1  ZINC001060733018    0.0700
     34 H34         0.0737    2.9187   51.8935 H       1  ZINC001060733018    0.0600
     35 H35        -2.3373    2.3440   51.8924 H       1  ZINC001060733018    0.4000
     36 H36        -5.9882    1.4034   49.4432 H       1  ZINC001060733018    0.0700
     37 H37        -5.0900    0.1485   50.3289 H       1  ZINC001060733018    0.0700
     38 H38        -7.4915   -0.0418   50.8167 H       1  ZINC001060733018    0.0700
     39 H39        -6.6159    0.4703   52.2794 H       1  ZINC001060733018    0.0700
     40 H40        -8.1460    2.2874   50.3600 H       1  ZINC001060733018    0.0700
     41 H41        -8.6438    1.8367   52.0106 H       1  ZINC001060733018    0.0700
     42 H42        -7.5822    2.7083   54.0333 H       1  ZINC001060733018    0.0900
     43 H43        -6.0457    3.7209   53.9084 H       1  ZINC001060733018    0.0900
     44 H44        -7.2465    5.3547   52.3835 H       1  ZINC001060733018    0.0900
     45 H45        -8.7829    4.3422   52.5080 H       1  ZINC001060733018    0.0900
     46 H46        -5.0648    4.1956   51.7196 H       1  ZINC001060733018    0.0700
     47 H47        -5.8565    3.7963   50.1738 H       1  ZINC001060733018    0.0800
     48 H48        -1.2564    0.7478   49.1776 H       1  ZINC001060733018    0.0700
     49 H49        -0.3021    0.7673   50.6800 H       1  ZINC001060733018    0.0700
     50 H50         0.4841    2.1109   48.0545 H       1  ZINC001060733018    0.0700
     51 H51         1.1707    0.5977   48.6923 H       1  ZINC001060733018    0.0700
     52 H52         1.4111    2.7657   44.9922 H       1  ZINC001060733018    0.1400
@<TRIPOS>BOND
     1     1     2    2
     2     2     3   am
     3     2    25    1
     4     3     4    1
     5     3    28    1
     6     4     5    1
     7     4    29    1
     8     4    30    1
     9     5     6    1
    10     5    24    1
    11     5     7    1
    12     7     8    1
    13     7    31    1
    14     7    32    1
    15     8     9    1
    16     8    33    1
    17     8    34    1
    18     9    10    1
    19     9    11    1
    20     9    23    1
    21    11    12   am
    22    11    35    1
    23    12    13    2
    24    12    14    1
    25    14    15    1
    26    14    22    1
    27    14    16    1
    28    16    17    1
    29    16    36    1
    30    16    37    1
    31    17    18    1
    32    17    38    1
    33    17    39    1
    34    18    19    1
    35    18    40    1
    36    18    41    1
    37    19    21    1
    38    19    20    1
    39    19    22    1
    40    20    21    1
    41    20    42    1
    42    20    43    1
    43    21    44    1
    44    21    45    1
    45    22    46    1
    46    22    47    1
    47    23    24    1
    48    23    48    1
    49    23    49    1
    50    24    50    1
    51    24    51    1
    52    25    26    1
    53    25    27    1
    54    25    52    1
@<TRIPOS>SUBSTRUCTURE
     1 ZINC001060733018        1 TEMP              0 ****  ****    0 ROOT


##########                                Name:    ZINC000846412382
##########                DOCK_Rotatable_Bonds:                   6
##########                         Heavy_Atoms:                  26
##########                    Molecular_Weight:             370.475
##########                DOCK_Rotatable_Bonds:                   6
##########                       Formal_Charge:               -0.03
##########                     HBond_Acceptors:                   7
##########                        HBond_Donors:                   4
##########                         Heavy_Atoms:                  26
##########                          Grid_Score:          -31.653673
##########                     Grid_vdw_energy:          -30.388956
##########                      Grid_es_energy:           -1.264717
##########           Internal_energy_repulsive:           17.675316

@<TRIPOS>MOLECULE
ZINC000846412382
 48 50 1 0 0
SMALL
USER_CHARGES


@<TRIPOS>ATOM
      1 C1         -4.8886    4.0737   52.6402 C.3     1  ZINC000846412382   -0.1400
      2 C2         -5.2496    2.7719   51.9723 C.2     1  ZINC000846412382    0.0300
      3 C3         -4.4642    2.1997   51.0511 C.2     1  ZINC000846412382   -0.2700
      4 C4         -3.1856    2.7505   50.5852 C.2     1  ZINC000846412382    0.6000
      5 O5         -3.1413    3.3994   49.5569 O.2     1  ZINC000846412382   -0.5200
      6 N6         -2.0609    2.5373   51.2965 N.am    1  ZINC000846412382   -0.7100
      7 C7         -0.7846    3.0855   50.8307 C.3     1  ZINC000846412382    0.1200
      8 H8         -0.9714    3.8531   50.0796 H       1  ZINC000846412382    0.1000
      9 C9         -0.0321    3.7006   52.0123 C.3     1  ZINC000846412382   -0.1700
     10 C10         0.0578    1.9656   50.2167 C.3     1  ZINC000846412382    0.1700
     11 C11        -0.7546    1.2508   49.1350 C.3     1  ZINC000846412382   -0.1400
     12 O12         0.4220    1.0309   51.2345 O.3     1  ZINC000846412382   -0.5500
     13 C13         1.3035    2.5521   49.6041 C.ar    1  ZINC000846412382   -0.1200
     14 C14         2.5316    2.3463   50.2043 C.ar    1  ZINC000846412382   -0.1100
     15 C15         3.6743    2.8844   49.6424 C.ar    1  ZINC000846412382   -0.1200
     16 C16         3.5889    3.6276   48.4800 C.ar    1  ZINC000846412382   -0.1200
     17 C17         2.3608    3.8326   47.8794 C.ar    1  ZINC000846412382   -0.1200
     18 C18         1.2187    3.2910   48.4390 C.ar    1  ZINC000846412382   -0.1000
     19 S19        -5.1738    0.7000   50.4776 S.3     1  ZINC000846412382    0.2000
     20 C20        -6.5633    0.8947   51.5375 C.ar    1  ZINC000846412382    0.1400
     21 N21        -7.6452    0.1303   51.7249 N.ar    1  ZINC000846412382   -0.5300
     22 C22        -8.5772    0.4734   52.5843 C.ar    1  ZINC000846412382    0.3900
     23 C23        -9.7751   -0.4244   52.7566 C.3     1  ZINC000846412382   -0.0900
     24 N24        -8.4994    1.5787   53.3029 N.ar    1  ZINC000846412382   -0.5800
     25 C25        -7.4679    2.4016   53.1900 C.ar    1  ZINC000846412382    0.5100
     26 N26        -7.4029    3.5525   53.9488 N.pl3   1  ZINC000846412382   -0.8300
     27 C27        -6.4247    2.0774   52.2773 C.ar    1  ZINC000846412382   -0.2500
     28 H28        -4.3890    3.8698   53.5872 H       1  ZINC000846412382    0.0800
     29 H29        -4.2210    4.6417   51.9922 H       1  ZINC000846412382    0.1100
     30 H30        -5.7946    4.6512   52.8241 H       1  ZINC000846412382    0.0700
     31 H31        -2.0964    2.0210   52.1169 H       1  ZINC000846412382    0.4000
     32 H32         0.1547    2.9329   52.7633 H       1  ZINC000846412382    0.0600
     33 H33         0.9175    4.1084   51.6657 H       1  ZINC000846412382    0.0800
     34 H34        -0.6322    4.4984   52.4497 H       1  ZINC000846412382    0.0700
     35 H35        -1.0324    1.9637   48.3587 H       1  ZINC000846412382    0.0700
     36 H36        -0.1545    0.4529   48.6976 H       1  ZINC000846412382    0.0700
     37 H37        -1.6556    0.8266   49.5781 H       1  ZINC000846412382    0.0700
     38 H38        -0.3270    0.5513   51.6142 H       1  ZINC000846412382    0.3800
     39 H39         2.5983    1.7656   51.1124 H       1  ZINC000846412382    0.1300
     40 H40         4.6337    2.7242   50.1117 H       1  ZINC000846412382    0.1200
     41 H41         4.4815    4.0485   48.0414 H       1  ZINC000846412382    0.1200
     42 H42         2.2940    4.4136   46.9714 H       1  ZINC000846412382    0.1200
     43 H43         0.2592    3.4512   47.9697 H       1  ZINC000846412382    0.1300
     44 H44        -9.5713   -1.1564   53.5382 H       1  ZINC000846412382    0.0900
     45 H45       -10.6411    0.1750   53.0372 H       1  ZINC000846412382    0.0900
     46 H46        -9.9795   -0.9414   51.8191 H       1  ZINC000846412382    0.0900
     47 H47        -8.2136    3.9367   54.3178 H       1  ZINC000846412382    0.4100
     48 H48        -6.5465    3.9772   54.1134 H       1  ZINC000846412382    0.4200
@<TRIPOS>BOND
     1     1     2    1
     2     1    28    1
     3     1    29    1
     4     1    30    1
     5     2    27    1
     6     2     3    2
     7     3     4    1
     8     3    19    1
     9     4     5    2
    10     4     6   am
    11     6     7    1
    12     6    31    1
    13     7     8    1
    14     7     9    1
    15     7    10    1
    16     9    32    1
    17     9    33    1
    18     9    34    1
    19    10    11    1
    20    10    12    1
    21    10    13    1
    22    11    35    1
    23    11    36    1
    24    11    37    1
    25    12    38    1
    26    13    18   ar
    27    13    14   ar
    28    14    15   ar
    29    14    39    1
    30    15    16   ar
    31    15    40    1
    32    16    17   ar
    33    16    41    1
    34    17    18   ar
    35    17    42    1
    36    18    43    1
    37    19    20    1
    38    20    27   ar
    39    20    21   ar
    40    21    22   ar
    41    22    23    1
    42    22    24   ar
    43    23    44    1
    44    23    45    1
    45    23    46    1
    46    24    25   ar
    47    25    26    1
    48    25    27   ar
    49    26    47    1
    50    26    48    1
@<TRIPOS>SUBSTRUCTURE
     1 ZINC000846412382        1 TEMP              0 ****  ****    0 ROOT


##########                                Name:    ZINC000285228948
##########                DOCK_Rotatable_Bonds:                   8
##########                         Heavy_Atoms:                  23
##########                    Molecular_Weight:             339.822
##########                DOCK_Rotatable_Bonds:                   8
##########                       Formal_Charge:           0.0299997
##########                     HBond_Acceptors:                   7
##########                        HBond_Donors:                   3
##########                         Heavy_Atoms:                  23
##########                          Grid_Score:          -31.651325
##########                     Grid_vdw_energy:          -30.054672
##########                      Grid_es_energy:           -1.596653
##########           Internal_energy_repulsive:           21.860802

@<TRIPOS>MOLECULE
ZINC000285228948
 45 46 1 0 0
SMALL
USER_CHARGES


@<TRIPOS>ATOM
      1 C1         -7.0979    2.7066   50.3207 C.3     1  <0>        -0.1600
      2 C2         -6.4033    1.9874   51.4790 C.3     1  <0>         0.1800
      3 H3         -6.8243    2.3302   52.4242 H       1  <0>         0.1100
      4 C4         -4.9277    2.2915   51.4465 C.ar    1  <0>        -0.0900
      5 C5         -4.2560    2.3273   50.2387 C.ar    1  <0>        -0.1000
      6 C6         -2.9027    2.6061   50.2083 C.ar    1  <0>        -0.1100
      7 C7         -2.2201    2.8495   51.3868 C.ar    1  <0>        -0.0300
      8 Cl8        -0.5203    3.2003   51.3494 Cl      1  <0>        -0.0700
      9 C9         -2.8929    2.8135   52.5953 C.ar    1  <0>        -0.1100
     10 C10        -4.2474    2.5402   52.6240 C.ar    1  <0>        -0.0900
     11 N11        -6.6071    0.5425   51.3490 N.am    1  <0>        -0.6100
     12 C12        -5.9304   -0.1997   50.2825 C.3     1  <0>         0.0600
     13 C13        -7.4172   -0.1040   52.2106 C.2     1  <0>         0.5200
     14 O14        -7.5871   -1.3000   52.1020 O.2     1  <0>        -0.5200
     15 C15        -8.1119    0.6591   53.3088 C.3     1  <0>         0.0300
     16 N16        -9.2560   -0.1210   53.7990 N.3     1  <0>        -0.4900
     17 C17       -10.3931   -0.0546   52.8458 C.3     1  <0>         0.0400
     18 C18       -11.6116   -0.4447   53.7197 C.3     1  <0>        -0.1400
     19 C19       -11.2918    0.2232   55.0767 C.3     1  <0>         0.1100
     20 O20       -11.9622    1.4810   55.1807 O.3     1  <0>        -0.5400
     21 C21       -11.6972   -0.6800   56.2128 C.2     1  <0>         0.5000
     22 N22       -12.4556   -0.1996   57.2180 N.am    1  <0>        -0.8500
     23 O23       -11.3410   -1.8394   56.2225 O.2     1  <0>        -0.5200
     24 C24        -9.7657    0.4296   55.0736 C.3     1  <0>         0.0600
     25 H25        -6.9462    3.7817   50.4174 H       1  <0>         0.0700
     26 H26        -6.6769    2.3638   49.3755 H       1  <0>         0.0600
     27 H27        -8.1652    2.4866   50.3442 H       1  <0>         0.0700
     28 H28        -4.7889    2.1370   49.3188 H       1  <0>         0.1400
     29 H29        -2.3779    2.6337   49.2647 H       1  <0>         0.1300
     30 H30        -2.3606    3.0031   53.5156 H       1  <0>         0.1400
     31 H31        -4.7727    2.5124   53.5672 H       1  <0>         0.1300
     32 H32        -4.9464   -0.5164   50.6282 H       1  <0>         0.0600
     33 H33        -6.5220   -1.0762   50.0179 H       1  <0>         0.0800
     34 H34        -5.8194    0.4411   49.4078 H       1  <0>         0.0800
     35 H35        -7.4137    0.8340   54.1274 H       1  <0>         0.1100
     36 H36        -8.4634    1.6151   52.9207 H       1  <0>         0.0700
     37 H37       -10.5084    0.9561   52.4542 H       1  <0>         0.0400
     38 H38       -10.2570   -0.7695   52.0343 H       1  <0>         0.1200
     39 H39       -12.5329   -0.0417   53.2990 H       1  <0>         0.0900
     40 H40       -11.6773   -1.5273   53.8286 H       1  <0>         0.0900
     41 H41       -12.8011    1.4410   55.6599 H       1  <0>         0.3800
     42 H42       -12.7156   -0.7807   57.9498 H       1  <0>         0.4000
     43 H43       -12.7414    0.7273   57.2096 H       1  <0>         0.4100
     44 H44        -9.3175   -0.1016   55.9133 H       1  <0>         0.1100
     45 H45        -9.5347    1.4930   55.1376 H       1  <0>         0.0700
@<TRIPOS>BOND
     1     1     2    1
     2     1    25    1
     3     1    26    1
     4     1    27    1
     5     2     3    1
     6     2     4    1
     7     2    11    1
     8     4    10   ar
     9     4     5   ar
    10     5     6   ar
    11     5    28    1
    12     6     7   ar
    13     6    29    1
    14     7     8    1
    15     7     9   ar
    16     9    10   ar
    17     9    30    1
    18    10    31    1
    19    11    12    1
    20    11    13   am
    21    12    32    1
    22    12    33    1
    23    12    34    1
    24    13    14    2
    25    13    15    1
    26    15    16    1
    27    15    35    1
    28    15    36    1
    29    16    24    1
    30    16    17    1
    31    17    18    1
    32    17    37    1
    33    17    38    1
    34    18    19    1
    35    18    39    1
    36    18    40    1
    37    19    20    1
    38    19    21    1
    39    19    24    1
    40    20    41    1
    41    21    22   am
    42    21    23    2
    43    22    42    1
    44    22    43    1
    45    24    44    1
    46    24    45    1
@<TRIPOS>SUBSTRUCTURE
     1 <0>         1 TEMP              0 ****  ****    0 ROOT


##########                                Name:    ZINC001079355651
##########                DOCK_Rotatable_Bonds:                   5
##########                         Heavy_Atoms:                  25
##########                    Molecular_Weight:             353.851
##########                DOCK_Rotatable_Bonds:                   5
##########                       Formal_Charge:           0.0199997
##########                     HBond_Acceptors:                   5
##########                        HBond_Donors:                   1
##########                         Heavy_Atoms:                  25
##########                          Grid_Score:          -31.637417
##########                     Grid_vdw_energy:          -30.555187
##########                      Grid_es_energy:           -1.082229
##########           Internal_energy_repulsive:            4.705555

@<TRIPOS>MOLECULE
ZINC001079355651
 45 47 1 0 0
SMALL
USER_CHARGES


@<TRIPOS>ATOM
      1 C1        -11.7496    2.1994   52.8768 C.3     1  ZINC001079355651   -0.1500
      2 C2        -10.5971    1.2448   53.1956 C.3     1  ZINC001079355651   -0.1000
      3 H3        -10.4596    0.5331   52.3816 H       1  ZINC001079355651    0.0900
      4 C4        -10.8692    0.4991   54.5196 C.3     1  ZINC001079355651    0.0300
      5 N5         -9.5382    0.3953   55.1712 N.3     1  ZINC001079355651   -0.5100
      6 C6         -9.6755    0.1711   56.6164 C.3     1  ZINC001079355651    0.1600
      7 C7        -10.6765   -0.8810   56.8569 C.1     1  ZINC001079355651   -0.1400
      8 C8        -11.4749   -1.7201   57.0486 C.1     1  ZINC001079355651   -0.1300
      9 C9        -12.4487   -2.7436   57.2826 C.ar    1  ZINC001079355651    0.0300
     10 C10       -12.3697   -3.9556   56.5959 C.ar    1  ZINC001079355651   -0.0900
     11 C11       -13.3110   -4.9384   56.8254 C.ar    1  ZINC001079355651   -0.1000
     12 C12       -14.3316   -4.7244   57.7339 C.ar    1  ZINC001079355651   -0.1000
     13 C13       -14.4164   -3.5237   58.4185 C.ar    1  ZINC001079355651   -0.0300
     14 Cl14      -15.7014   -3.2641   59.5565 Cl      1  ZINC001079355651   -0.0600
     15 C15       -13.4772   -2.5350   58.2023 C.ar    1  ZINC001079355651   -0.0900
     16 C16        -8.8932    1.7045   54.8943 C.3     1  ZINC001079355651    0.0200
     17 C17        -9.2965    2.0377   53.4395 C.3     1  ZINC001079355651    0.1500
     18 H18        -9.4795    3.1069   53.3327 H       1  ZINC001079355651    0.1000
     19 N19        -8.2498    1.6062   52.5096 N.am    1  ZINC001079355651   -0.7100
     20 C20        -7.2267    2.4329   52.2161 C.2     1  ZINC001079355651    0.5600
     21 O21        -7.1716    3.5356   52.7236 O.2     1  ZINC001079355651   -0.5300
     22 C22        -6.1691    1.9972   51.2744 C.ar    1  ZINC001079355651   -0.0900
     23 C23        -5.3421    2.9298   50.6412 C.ar    1  ZINC001079355651   -0.1400
     24 C24        -4.3686    2.4796   49.7705 C.ar    1  ZINC001079355651    0.1000
     25 N25        -4.2148    1.1918   49.5344 N.ar    1  ZINC001079355651   -0.4700
     26 C26        -4.9727    0.2799   50.1101 C.ar    1  ZINC001079355651    0.1000
     27 C27        -5.9666    0.6415   50.9989 C.ar    1  ZINC001079355651   -0.1200
     28 H28       -11.5205    2.7546   51.9672 H       1  ZINC001079355651    0.0600
     29 H29       -12.6658    1.6271   52.7321 H       1  ZINC001079355651    0.0700
     30 H30       -11.8833    2.8965   53.7039 H       1  ZINC001079355651    0.0600
     31 H31       -11.5547    1.0716   55.1445 H       1  ZINC001079355651    0.0600
     32 H32       -11.2736   -0.4934   54.3207 H       1  ZINC001079355651    0.0900
     33 H33        -8.7155   -0.1396   57.0288 H       1  ZINC001079355651    0.0700
     34 H34        -9.9962    1.0947   57.0985 H       1  ZINC001079355651    0.1100
     35 H35       -11.5736   -4.1242   55.8859 H       1  ZINC001079355651    0.1300
     36 H36       -13.2507   -5.8767   56.2940 H       1  ZINC001079355651    0.1400
     37 H37       -15.0657   -5.4968   57.9097 H       1  ZINC001079355651    0.1400
     38 H38       -13.5438   -1.5989   58.7367 H       1  ZINC001079355651    0.1400
     39 H39        -9.2694    2.4657   55.5778 H       1  ZINC001079355651    0.0600
     40 H40        -7.8096    1.6197   54.9776 H       1  ZINC001079355651    0.0900
     41 H41        -8.2930    0.7255   52.1054 H       1  ZINC001079355651    0.4000
     42 H42        -5.4626    3.9864   50.8296 H       1  ZINC001079355651    0.1400
     43 H43        -3.7251    3.1922   49.2762 H       1  ZINC001079355651    0.1600
     44 H44        -4.8117   -0.7645   49.8871 H       1  ZINC001079355651    0.1700
     45 H45        -6.5839   -0.1112   51.4668 H       1  ZINC001079355651    0.1500
@<TRIPOS>BOND
     1     1     2    1
     2     1    28    1
     3     1    29    1
     4     1    30    1
     5     2     3    1
     6     2    17    1
     7     2     4    1
     8     4     5    1
     9     4    31    1
    10     4    32    1
    11     5     6    1
    12     5    16    1
    13     6     7    1
    14     6    33    1
    15     6    34    1
    16     7     8    3
    17     8     9    1
    18     9    15   ar
    19     9    10   ar
    20    10    11   ar
    21    10    35    1
    22    11    12   ar
    23    11    36    1
    24    12    13   ar
    25    12    37    1
    26    13    14    1
    27    13    15   ar
    28    15    38    1
    29    16    17    1
    30    16    39    1
    31    16    40    1
    32    17    18    1
    33    17    19    1
    34    19    20   am
    35    19    41    1
    36    20    21    2
    37    20    22    1
    38    22    27   ar
    39    22    23   ar
    40    23    24   ar
    41    23    42    1
    42    24    25   ar
    43    24    43    1
    44    25    26   ar
    45    26    27   ar
    46    26    44    1
    47    27    45    1
@<TRIPOS>SUBSTRUCTURE
     1 ZINC001079355651        1 TEMP              0 ****  ****    0 ROOT


##########                                Name:    ZINC001300804061
##########                DOCK_Rotatable_Bonds:                   5
##########                         Heavy_Atoms:                  27
##########                    Molecular_Weight:              390.55
##########                DOCK_Rotatable_Bonds:                   5
##########                       Formal_Charge:                0.01
##########                     HBond_Acceptors:                   7
##########                        HBond_Donors:                   0
##########                         Heavy_Atoms:                  27
##########                          Grid_Score:          -31.634499
##########                     Grid_vdw_energy:          -29.848078
##########                      Grid_es_energy:           -1.786420
##########           Internal_energy_repulsive:           10.948269

@<TRIPOS>MOLECULE
ZINC001300804061
 57 60 1 0 0
SMALL
USER_CHARGES


@<TRIPOS>ATOM
      1 C1        -13.9838    2.1630   53.3036 C.3     1  ZINC001300804061    0.0300
      2 O2        -13.0463    1.0921   53.4319 O.3     1  ZINC001300804061   -0.3800
      3 C3        -11.7787    1.4893   53.9585 C.3     1  ZINC001300804061    0.1000
      4 H4        -11.7216    2.5775   53.9879 H       1  ZINC001300804061    0.0700
      5 C5        -10.6613    0.9431   53.0669 C.3     1  ZINC001300804061    0.0500
      6 N6         -9.3577    1.3332   53.6192 N.3     1  ZINC001300804061   -0.4600
      7 C7         -8.3287    0.9673   52.7682 C.2     1  ZINC001300804061    0.3600
      8 N8         -7.9704   -0.2584   52.4619 N.2     1  ZINC001300804061   -0.3000
      9 N9         -6.9789   -0.2388   51.6446 N.2     1  ZINC001300804061   -0.2500
     10 C10        -6.6424    1.0043   51.3783 C.2     1  ZINC001300804061    0.2600
     11 C11        -5.5574    1.4458   50.4879 C.2     1  ZINC001300804061    0.0400
     12 C12        -5.6517    2.4087   49.5284 C.2     1  ZINC001300804061   -0.1300
     13 C13        -4.3834    2.5036   48.9236 C.2     1  ZINC001300804061   -0.2100
     14 C14        -3.5854    1.6057   49.5348 C.2     1  ZINC001300804061    0.0100
     15 C15        -2.1343    1.3577   49.2120 C.3     1  ZINC001300804061   -0.0800
     16 O16        -4.2956    0.9724   50.4829 O.3     1  ZINC001300804061   -0.1700
     17 N17        -7.5018    1.8146   52.0869 N.pl3   1  ZINC001300804061   -0.4600
     18 C18        -7.5197    3.2792   52.1114 C.3     1  ZINC001300804061    0.1200
     19 C19        -6.2943    3.7917   52.8708 C.3     1  ZINC001300804061   -0.1000
     20 H20        -5.4105    3.2442   52.5432 H       1  ZINC001300804061    0.0900
     21 C21        -6.4985    3.5748   54.3673 C.3     1  ZINC001300804061   -0.1200
     22 C22        -5.2013    3.8238   55.1310 C.3     1  ZINC001300804061   -0.1200
     23 C23        -4.8714    5.3188   55.1271 C.3     1  ZINC001300804061   -0.0800
     24 S24        -4.5918    5.8537   53.4127 S.3     1  ZINC001300804061   -0.2600
     25 C25        -6.1045    5.2831   52.5821 C.3     1  ZINC001300804061   -0.0700
     26 C26        -9.1583    0.7676   54.9596 C.3     1  ZINC001300804061    0.0600
     27 C27       -10.2309    1.3086   55.9077 C.3     1  ZINC001300804061   -0.1100
     28 C28       -11.6155    0.9303   55.3745 C.3     1  ZINC001300804061   -0.0900
     29 H29       -11.7124   -0.1552   55.3501 H       1  ZINC001300804061    0.0800
     30 C30       -12.6932    1.5193   56.2869 C.3     1  ZINC001300804061   -0.1400
     31 H31       -14.1666    2.6051   54.2831 H       1  ZINC001300804061    0.0400
     32 H32       -13.5800    2.9210   52.6325 H       1  ZINC001300804061    0.0400
     33 H33       -14.9199    1.7797   52.8976 H       1  ZINC001300804061    0.0900
     34 H34       -10.7277   -0.1441   53.0262 H       1  ZINC001300804061    0.0700
     35 H35       -10.7664    1.3511   52.0616 H       1  ZINC001300804061    0.0800
     36 H36        -6.5293    2.9869   49.2796 H       1  ZINC001300804061    0.1600
     37 H37        -4.1033    3.1702   48.1214 H       1  ZINC001300804061    0.1600
     38 H38        -1.5098    2.0103   49.8222 H       1  ZINC001300804061    0.0900
     39 H39        -1.8878    0.3172   49.4235 H       1  ZINC001300804061    0.0800
     40 H40        -1.9559    1.5663   48.1572 H       1  ZINC001300804061    0.0900
     41 H41        -7.4996    3.6599   51.0902 H       1  ZINC001300804061    0.1100
     42 H42        -8.4261    3.6232   52.6097 H       1  ZINC001300804061    0.1000
     43 H43        -7.2649    4.2608   54.7280 H       1  ZINC001300804061    0.0700
     44 H44        -6.8256    2.5494   54.5401 H       1  ZINC001300804061    0.0800
     45 H45        -5.3152    3.4811   56.1594 H       1  ZINC001300804061    0.0800
     46 H46        -4.3899    3.2729   54.6554 H       1  ZINC001300804061    0.0800
     47 H47        -5.7047    5.8778   55.5528 H       1  ZINC001300804061    0.0800
     48 H48        -3.9715    5.4958   55.7162 H       1  ZINC001300804061    0.1100
     49 H49        -6.0106    5.4359   51.5070 H       1  ZINC001300804061    0.1000
     50 H50        -6.9610    5.8420   52.9590 H       1  ZINC001300804061    0.0900
     51 H51        -9.2319   -0.3188   54.9101 H       1  ZINC001300804061    0.0600
     52 H52        -8.1719    1.0482   55.3292 H       1  ZINC001300804061    0.0800
     53 H53       -10.0920    0.8765   56.8988 H       1  ZINC001300804061    0.0800
     54 H54       -10.1490    2.3938   55.9686 H       1  ZINC001300804061    0.0800
     55 H55       -12.5971    2.6048   56.3090 H       1  ZINC001300804061    0.0500
     56 H56       -13.6784    1.2495   55.9067 H       1  ZINC001300804061    0.0600
     57 H57       -12.5720    1.1232   57.2951 H       1  ZINC001300804061    0.0600
@<TRIPOS>BOND
     1     1     2    1
     2     1    31    1
     3     1    32    1
     4     1    33    1
     5     2     3    1
     6     3     4    1
     7     3    28    1
     8     3     5    1
     9     5     6    1
    10     5    34    1
    11     5    35    1
    12     6     7    1
    13     6    26    1
    14     7    17    1
    15     7     8    2
    16     8     9    1
    17     9    10    2
    18    10    11    1
    19    10    17    1
    20    11    16    1
    21    11    12    2
    22    12    13    1
    23    12    36    1
    24    13    14    2
    25    13    37    1
    26    14    15    1
    27    14    16    1
    28    15    38    1
    29    15    39    1
    30    15    40    1
    31    17    18    1
    32    18    19    1
    33    18    41    1
    34    18    42    1
    35    19    20    1
    36    19    25    1
    37    19    21    1
    38    21    22    1
    39    21    43    1
    40    21    44    1
    41    22    23    1
    42    22    45    1
    43    22    46    1
    44    23    24    1
    45    23    47    1
    46    23    48    1
    47    24    25    1
    48    25    49    1
    49    25    50    1
    50    26    27    1
    51    26    51    1
    52    26    52    1
    53    27    28    1
    54    27    53    1
    55    27    54    1
    56    28    29    1
    57    28    30    1
    58    30    55    1
    59    30    56    1
    60    30    57    1
@<TRIPOS>SUBSTRUCTURE
     1 ZINC001300804061        1 TEMP              0 ****  ****    0 ROOT


##########                                Name:    ZINC001231746020
##########                DOCK_Rotatable_Bonds:                   3
##########                         Heavy_Atoms:                  19
##########                    Molecular_Weight:             348.667
##########                DOCK_Rotatable_Bonds:                   3
##########                       Formal_Charge:          -0.0399997
##########                     HBond_Acceptors:                   4
##########                        HBond_Donors:                   2
##########                         Heavy_Atoms:                  19
##########                          Grid_Score:          -31.616520
##########                     Grid_vdw_energy:          -29.611570
##########                      Grid_es_energy:           -2.004950
##########           Internal_energy_repulsive:           12.717789

@<TRIPOS>MOLECULE
ZINC001231746020
 38 39 1 0 0
SMALL
USER_CHARGES


@<TRIPOS>ATOM
      1 C1          0.3344    3.7949   52.4925 C.3     1  ZINC001231746020   -0.1500
      2 C2         -0.5880    3.1311   51.4681 C.3     1  ZINC001231746020   -0.0900
      3 H3         -1.2415    2.4192   51.9724 H       1  ZINC001231746020    0.0800
      4 C4         -1.4202    4.1820   50.7830 C.3     1  ZINC001231746020   -0.1400
      5 C5         -2.8127    3.6821   50.3583 C.3     1  ZINC001231746020   -0.0100
      6 N6         -2.7978    2.3308   49.7581 N.4     1  ZINC001231746020   -0.3800
      7 H7         -2.7337    1.6448   50.4953 H       1  ZINC001231746020    0.4100
      8 C8         -4.0500    2.1222   49.0191 C.3     1  ZINC001231746020    0.0700
      9 C9         -5.1916    1.9856   49.9933 C.ar    1  ZINC001231746020   -0.3100
     10 C10        -5.7428    3.1132   50.5727 C.ar    1  ZINC001231746020   -0.0300
     11 C11        -6.7906    2.9909   51.4667 C.ar    1  ZINC001231746020   -0.1600
     12 Cl12       -7.4822    4.4073   52.1940 Cl      1  ZINC001231746020   -0.0800
     13 C13        -7.2885    1.7345   51.7822 C.ar    1  ZINC001231746020    0.3100
     14 O14        -8.3189    1.6112   52.6604 O.3     1  ZINC001231746020   -0.6300
     15 C15        -6.7329    0.6042   51.1993 C.ar    1  ZINC001231746020   -0.2100
     16 Br16       -7.4079   -1.1099   51.6261 Br      1  ZINC001231746020   -0.0600
     17 C17        -5.6896    0.7330   50.3017 C.ar    1  ZINC001231746020   -0.0200
     18 C18        -1.6854    2.1540   48.8565 C.3     1  ZINC001231746020   -0.0200
     19 C19        -0.5529    1.4639   49.6340 C.3     1  ZINC001231746020   -0.1800
     20 C20         0.2633    2.3947   50.4036 C.3     1  ZINC001231746020    0.1000
     21 H21         1.0609    1.8437   50.9018 H       1  ZINC001231746020    0.0700
     22 O22         0.8407    3.3557   49.5176 O.3     1  ZINC001231746020   -0.5600
     23 H23        -0.2659    4.3221   53.2341 H       1  ZINC001231746020    0.0600
     24 H24         0.9901    4.5030   51.9859 H       1  ZINC001231746020    0.0700
     25 H25         0.9360    3.0325   52.9875 H       1  ZINC001231746020    0.0600
     26 H26        -1.5443    5.0259   51.4615 H       1  ZINC001231746020    0.1000
     27 H27        -0.8885    4.5243   49.8952 H       1  ZINC001231746020    0.1000
     28 H28        -3.4603    3.6673   51.2349 H       1  ZINC001231746020    0.1200
     29 H29        -3.2280    4.3814   49.6328 H       1  ZINC001231746020    0.1200
     30 H30        -4.2316    2.9742   48.3638 H       1  ZINC001231746020    0.1200
     31 H31        -3.9721    1.2142   48.4211 H       1  ZINC001231746020    0.1200
     32 H32        -5.3548    4.0907   50.3268 H       1  ZINC001231746020    0.1100
     33 H33        -5.2602   -0.1459   49.8438 H       1  ZINC001231746020    0.1100
     34 H34        -1.9882    1.5309   48.0149 H       1  ZINC001231746020    0.1400
     35 H35        -1.3467    3.1244   48.4937 H       1  ZINC001231746020    0.1300
     36 H36        -0.9900    0.7345   50.3160 H       1  ZINC001231746020    0.0900
     37 H37         0.0894    0.9398   48.9262 H       1  ZINC001231746020    0.1100
     38 H38         0.1990    3.7991   48.9460 H       1  ZINC001231746020    0.3900
@<TRIPOS>BOND
     1     1     2    1
     2     1    23    1
     3     1    24    1
     4     1    25    1
     5     2     3    1
     6     2    20    1
     7     2     4    1
     8     4     5    1
     9     4    26    1
    10     4    27    1
    11     5     6    1
    12     5    28    1
    13     5    29    1
    14     6     7    1
    15     6     8    1
    16     6    18    1
    17     8     9    1
    18     8    30    1
    19     8    31    1
    20     9    17   ar
    21     9    10   ar
    22    10    11   ar
    23    10    32    1
    24    11    12    1
    25    11    13   ar
    26    13    14    1
    27    13    15   ar
    28    15    16    1
    29    15    17   ar
    30    17    33    1
    31    18    19    1
    32    18    34    1
    33    18    35    1
    34    19    20    1
    35    19    36    1
    36    19    37    1
    37    20    21    1
    38    20    22    1
    39    22    38    1
@<TRIPOS>SUBSTRUCTURE
     1 ZINC001231746020        1 TEMP              0 ****  ****    0 ROOT


##########                                Name:    ZINC000863216249
##########                DOCK_Rotatable_Bonds:                   5
##########                         Heavy_Atoms:                  23
##########                    Molecular_Weight:             396.351
##########                DOCK_Rotatable_Bonds:                   5
##########                       Formal_Charge:         -0.00999944
##########                     HBond_Acceptors:                   5
##########                        HBond_Donors:                   1
##########                         Heavy_Atoms:                  23
##########                          Grid_Score:          -31.603886
##########                     Grid_vdw_energy:          -28.999695
##########                      Grid_es_energy:           -2.604191
##########           Internal_energy_repulsive:           23.100739

@<TRIPOS>MOLECULE
ZINC000863216249
 45 48 1 0 0
SMALL
USER_CHARGES


@<TRIPOS>ATOM
      1 S1         -4.3410    2.1167   49.1209 S.2     1  ZINC000863216249   -0.5900
      2 C2         -3.9745    2.3616   50.7752 C.2     1  ZINC000863216249    0.5600
      3 N3         -2.6980    2.2860   51.2010 N.am    1  ZINC000863216249   -0.6800
      4 C4         -1.6248    1.9883   50.2493 C.3     1  ZINC000863216249    0.1200
      5 C5         -0.2751    2.3478   50.8738 C.3     1  ZINC000863216249    0.0400
      6 N6          0.7004    2.6186   49.8094 N.3     1  ZINC000863216249   -0.5300
      7 C7          0.7566    1.5055   48.8506 C.3     1  ZINC000863216249    0.0000
      8 C8          1.7387    1.8542   47.7291 C.3     1  ZINC000863216249    0.0600
      9 O9          3.0188    2.1453   48.2965 O.3     1  ZINC000863216249   -0.3800
     10 C10         3.0008    3.2248   49.2345 C.3     1  ZINC000863216249    0.0600
     11 C11         2.0315    2.8900   50.3712 C.3     1  ZINC000863216249    0.0200
     12 N12        -4.9619    2.6355   51.6508 N.am    1  ZINC000863216249   -0.5100
     13 C13        -6.3844    2.7433   51.3079 C.3     1  ZINC000863216249    0.1200
     14 C14        -7.0858    3.0622   52.6319 C.3     1  ZINC000863216249   -0.1100
     15 C15        -8.2864    3.9985   52.6937 C.3     1  ZINC000863216249   -0.1500
     16 C16        -8.4639    2.5011   52.9604 C.3     1  ZINC000863216249   -0.1500
     17 C17        -5.9855    3.1150   53.6600 C.ar    1  ZINC000863216249   -0.0700
     18 C18        -6.0161    3.3611   55.0190 C.ar    1  ZINC000863216249   -0.0800
     19 C19        -4.8454    3.3536   55.7542 C.ar    1  ZINC000863216249   -0.1000
     20 C20        -3.6398    3.0985   55.1256 C.ar    1  ZINC000863216249   -0.0700
     21 Br21       -2.0370    3.0870   56.1291 Br      1  ZINC000863216249   -0.0400
     22 C22        -3.6036    2.8520   53.7686 C.ar    1  ZINC000863216249   -0.0900
     23 C23        -4.7817    2.8528   53.0207 C.ar    1  ZINC000863216249    0.1400
     24 H24        -2.4900    2.4287   52.1377 H       1  ZINC000863216249    0.4000
     25 H25        -1.6405    0.9263   50.0044 H       1  ZINC000863216249    0.0900
     26 H26        -1.7721    2.5728   49.3411 H       1  ZINC000863216249    0.1000
     27 H27        -0.3881    3.2347   51.4974 H       1  ZINC000863216249    0.0900
     28 H28         0.0755    1.5162   51.4850 H       1  ZINC000863216249    0.0400
     29 H29         1.0923    0.6026   49.3606 H       1  ZINC000863216249    0.0500
     30 H30        -0.2342    1.3387   48.4281 H       1  ZINC000863216249    0.1000
     31 H31         1.8267    1.0089   47.0466 H       1  ZINC000863216249    0.1000
     32 H32         1.3751    2.7258   47.1848 H       1  ZINC000863216249    0.0600
     33 H33         4.0017    3.3708   49.6406 H       1  ZINC000863216249    0.1000
     34 H34         2.6739    4.1362   48.7340 H       1  ZINC000863216249    0.0600
     35 H35         1.9714    3.7337   51.0586 H       1  ZINC000863216249    0.0900
     36 H36         2.3875    2.0091   50.9055 H       1  ZINC000863216249    0.0500
     37 H37        -6.5418    3.5496   50.5916 H       1  ZINC000863216249    0.0900
     38 H38        -6.7495    1.7992   50.9034 H       1  ZINC000863216249    0.0900
     39 H39        -8.3553    4.6735   53.5467 H       1  ZINC000863216249    0.1100
     40 H40        -8.6682    4.3907   51.7510 H       1  ZINC000863216249    0.1100
     41 H41        -8.9623    1.9085   52.1932 H       1  ZINC000863216249    0.1100
     42 H42        -8.6494    2.1913   53.9888 H       1  ZINC000863216249    0.1100
     43 H43        -6.9578    3.5606   55.5087 H       1  ZINC000863216249    0.1400
     44 H44        -4.8719    3.5467   56.8164 H       1  ZINC000863216249    0.1400
     45 H45        -2.6592    2.6538   53.2834 H       1  ZINC000863216249    0.1900
@<TRIPOS>BOND
     1     1     2    2
     2     2     3   am
     3     2    12   am
     4     3     4    1
     5     3    24    1
     6     4     5    1
     7     4    25    1
     8     4    26    1
     9     5     6    1
    10     5    27    1
    11     5    28    1
    12     6    11    1
    13     6     7    1
    14     7     8    1
    15     7    29    1
    16     7    30    1
    17     8     9    1
    18     8    31    1
    19     8    32    1
    20     9    10    1
    21    10    11    1
    22    10    33    1
    23    10    34    1
    24    11    35    1
    25    11    36    1
    26    12    23    1
    27    12    13    1
    28    13    14    1
    29    13    37    1
    30    13    38    1
    31    14    16    1
    32    14    15    1
    33    14    17    1
    34    15    16    1
    35    15    39    1
    36    15    40    1
    37    16    41    1
    38    16    42    1
    39    17    23   ar
    40    17    18   ar
    41    18    19   ar
    42    18    43    1
    43    19    20   ar
    44    19    44    1
    45    20    21    1
    46    20    22   ar
    47    22    23   ar
    48    22    45    1
@<TRIPOS>SUBSTRUCTURE
     1 ZINC000863216249        1 TEMP              0 ****  ****    0 ROOT


##########                                Name:    ZINC001220212140
##########                DOCK_Rotatable_Bonds:                   6
##########                         Heavy_Atoms:                  28
##########                    Molecular_Weight:             379.459
##########                DOCK_Rotatable_Bonds:                   6
##########                       Formal_Charge:         -0.00999925
##########                     HBond_Acceptors:                   6
##########                        HBond_Donors:                   1
##########                         Heavy_Atoms:                  28
##########                          Grid_Score:          -31.577604
##########                     Grid_vdw_energy:          -32.617466
##########                      Grid_es_energy:            1.039863
##########           Internal_energy_repulsive:           20.660629

@<TRIPOS>MOLECULE
ZINC001220212140
 53 56 1 0 0
SMALL
USER_CHARGES


@<TRIPOS>ATOM
      1 C1         -2.0353    2.2195   51.3908 C.3     1  ZINC001220212140   -0.1700
      2 C2         -2.6845    2.6828   50.0850 C.3     1  ZINC001220212140    0.0800
      3 H3         -1.9495    2.7159   49.2808 H       1  ZINC001220212140    0.1200
      4 C4         -3.8702    1.7641   49.7064 C.3     1  ZINC001220212140   -0.1100
      5 C5         -5.0438    2.4925   50.3327 C.ar    1  ZINC001220212140   -0.1500
      6 C6         -6.3327    2.0977   50.6112 C.ar    1  ZINC001220212140   -0.0700
      7 C7         -7.2167    2.9882   51.2085 C.ar    1  ZINC001220212140    0.1400
      8 N8         -8.5301    2.5920   51.4949 N.am    1  ZINC001220212140   -0.6800
      9 C9         -8.7546    1.5042   52.2582 C.2     1  ZINC001220212140    0.7200
     10 O10        -7.8176    0.8665   52.6983 O.2     1  ZINC001220212140   -0.5700
     11 N11       -10.0177    1.1231   52.5336 N.am    1  ZINC001220212140   -0.6300
     12 C12       -11.2375    1.7994   52.0684 C.3     1  ZINC001220212140    0.0900
     13 C13       -12.4402    0.9955   52.6052 C.3     1  ZINC001220212140   -0.1100
     14 C14       -11.8312   -0.4071   52.8685 C.3     1  ZINC001220212140   -0.1300
     15 H15       -11.7947   -0.9955   51.9517 H       1  ZINC001220212140    0.1200
     16 C16       -12.5957   -1.1349   53.9441 C.2     1  ZINC001220212140    0.5300
     17 O17       -13.3927   -0.5343   54.6335 O.2     1  ZINC001220212140   -0.5100
     18 N18       -12.3940   -2.4530   54.1397 N.am    1  ZINC001220212140   -0.5700
     19 C19       -11.4314   -3.1783   53.3069 C.3     1  ZINC001220212140    0.0700
     20 C20       -13.1039   -3.1287   55.1384 C.ar    1  ZINC001220212140    0.1400
     21 C21       -14.4712   -2.9289   55.2765 C.ar    1  ZINC001220212140   -0.1100
     22 C22       -15.1691   -3.5973   56.2633 C.ar    1  ZINC001220212140   -0.1100
     23 C23       -14.5077   -4.4645   57.1134 C.ar    1  ZINC001220212140   -0.1200
     24 C24       -13.1462   -4.6652   56.9788 C.ar    1  ZINC001220212140   -0.1100
     25 C25       -12.4437   -4.0049   55.9899 C.ar    1  ZINC001220212140   -0.1200
     26 C26       -10.4052   -0.0444   53.3460 C.3     1  ZINC001220212140    0.1400
     27 C27        -6.7911    4.2721   51.5202 C.ar    1  ZINC001220212140   -0.1100
     28 C28        -5.4999    4.6648   51.2363 C.ar    1  ZINC001220212140   -0.1200
     29 C29        -4.6112    3.7776   50.6346 C.ar    1  ZINC001220212140    0.0900
     30 O30        -3.3116    3.9652   50.2551 O.3     1  ZINC001220212140   -0.3000
     31 H31        -2.7835    2.2053   52.1834 H       1  ZINC001220212140    0.0600
     32 H32        -1.6275    1.2174   51.2582 H       1  ZINC001220212140    0.0800
     33 H33        -1.2327    2.9056   51.6610 H       1  ZINC001220212140    0.0700
     34 H34        -3.9836    1.7007   48.6242 H       1  ZINC001220212140    0.0900
     35 H35        -3.7495    0.7726   50.1427 H       1  ZINC001220212140    0.0900
     36 H36        -6.6567    1.0971   50.3660 H       1  ZINC001220212140    0.1400
     37 H37        -9.2777    3.1008   51.1438 H       1  ZINC001220212140    0.4100
     38 H38       -11.2684    2.8172   52.4576 H       1  ZINC001220212140    0.0700
     39 H39       -11.2594    1.8162   50.9787 H       1  ZINC001220212140    0.0700
     40 H40       -12.8147    1.4332   53.5306 H       1  ZINC001220212140    0.1000
     41 H41       -13.2308    0.9383   51.8570 H       1  ZINC001220212140    0.0900
     42 H42       -10.4476   -3.1440   53.7750 H       1  ZINC001220212140    0.0700
     43 H43       -11.7489   -4.2159   53.2045 H       1  ZINC001220212140    0.0800
     44 H44       -11.3814   -2.7146   52.3217 H       1  ZINC001220212140    0.0800
     45 H45       -14.9883   -2.2512   54.6133 H       1  ZINC001220212140    0.1200
     46 H46       -16.2325   -3.4423   56.3712 H       1  ZINC001220212140    0.1300
     47 H47       -15.0556   -4.9857   57.8845 H       1  ZINC001220212140    0.1300
     48 H48       -12.6324   -5.3426   57.6448 H       1  ZINC001220212140    0.1300
     49 H49       -11.3804   -4.1621   55.8852 H       1  ZINC001220212140    0.1200
     50 H50        -9.7232   -0.8764   53.1702 H       1  ZINC001220212140    0.0900
     51 H51       -10.4153    0.2219   54.4028 H       1  ZINC001220212140    0.0700
     52 H52        -7.4741    4.9666   51.9866 H       1  ZINC001220212140    0.1300
     53 H53        -5.1763    5.6656   51.4819 H       1  ZINC001220212140    0.1300
@<TRIPOS>BOND
     1     1     2    1
     2     1    31    1
     3     1    32    1
     4     1    33    1
     5     2     3    1
     6     2    30    1
     7     2     4    1
     8     4     5    1
     9     4    34    1
    10     4    35    1
    11     5    29   ar
    12     5     6   ar
    13     6     7   ar
    14     6    36    1
    15     7     8    1
    16     7    27   ar
    17     8     9   am
    18     8    37    1
    19     9    10    2
    20     9    11   am
    21    11    26    1
    22    11    12    1
    23    12    13    1
    24    12    38    1
    25    12    39    1
    26    13    14    1
    27    13    40    1
    28    13    41    1
    29    14    15    1
    30    14    16    1
    31    14    26    1
    32    16    17    2
    33    16    18   am
    34    18    19    1
    35    18    20    1
    36    19    42    1
    37    19    43    1
    38    19    44    1
    39    20    25   ar
    40    20    21   ar
    41    21    22   ar
    42    21    45    1
    43    22    23   ar
    44    22    46    1
    45    23    24   ar
    46    23    47    1
    47    24    25   ar
    48    24    48    1
    49    25    49    1
    50    26    50    1
    51    26    51    1
    52    27    28   ar
    53    27    52    1
    54    28    29   ar
    55    28    53    1
    56    29    30    1
@<TRIPOS>SUBSTRUCTURE
     1 ZINC001220212140        1 TEMP              0 ****  ****    0 ROOT


##########                                Name:    ZINC000156038173
##########                DOCK_Rotatable_Bonds:                  10
##########                         Heavy_Atoms:                  27
##########                    Molecular_Weight:             396.357
##########                DOCK_Rotatable_Bonds:                  10
##########                       Formal_Charge:         -0.00999981
##########                     HBond_Acceptors:                  10
##########                        HBond_Donors:                   1
##########                         Heavy_Atoms:                  27
##########                          Grid_Score:          -31.491989
##########                     Grid_vdw_energy:          -29.180523
##########                      Grid_es_energy:           -2.311465
##########           Internal_energy_repulsive:           40.297287

@<TRIPOS>MOLECULE
ZINC000156038173
 48 48 1 0 0
SMALL
USER_CHARGES


@<TRIPOS>ATOM
      1 C1         -8.8970   -3.9182   59.5550 C.3     1  ZINC000156038173    0.0700
      2 N2         -9.5224   -2.6501   59.1720 N.am    1  ZINC000156038173   -0.6300
      3 C3         -9.2638   -1.4396   59.9558 C.3     1  ZINC000156038173    0.1500
      4 C4         -9.4874   -1.7358   61.4401 C.3     1  ZINC000156038173   -0.1400
      5 C5         -9.7264   -0.4445   62.1794 C.2     1  ZINC000156038173    0.4700
      6 O6        -10.8402    0.0201   62.2393 O.2     1  ZINC000156038173   -0.5000
      7 O7         -8.7020    0.1895   62.7714 O.3     1  ZINC000156038173   -0.3500
      8 C8         -9.0266    1.3401   63.5955 C.3     1  ZINC000156038173    0.1200
      9 C9         -9.6634    2.4264   62.7264 C.3     1  ZINC000156038173   -0.1800
     10 C10       -10.0096    0.9219   64.6908 C.3     1  ZINC000156038173   -0.1400
     11 C11        -7.7489    1.8843   64.2374 C.3     1  ZINC000156038173   -0.1800
     12 C12       -10.3357   -2.5968   58.0986 C.2     1  ZINC000156038173    0.7100
     13 O13       -10.5517   -3.6016   57.4490 O.2     1  ZINC000156038173   -0.5700
     14 N14       -10.9098   -1.4297   57.7455 N.am    1  ZINC000156038173   -0.7400
     15 C15       -11.7953   -1.3721   56.5798 C.3     1  ZINC000156038173    0.1700
     16 H16       -12.2192   -2.3594   56.3963 H       1  ZINC000156038173    0.1500
     17 C17       -11.0084   -0.9311   55.3725 C.ar    1  ZINC000156038173   -0.1300
     18 C18       -10.2612    0.2306   55.4213 C.ar    1  ZINC000156038173   -0.0700
     19 C19        -9.5388    0.6366   54.3145 C.ar    1  ZINC000156038173   -0.1000
     20 C20        -9.5624   -0.1183   53.1570 C.ar    1  ZINC000156038173   -0.1100
     21 C21       -10.3097   -1.2822   53.1050 C.ar    1  ZINC000156038173    0.0700
     22 F22       -10.3333   -2.0207   51.9740 F       1  ZINC000156038173   -0.1200
     23 C23       -11.0296   -1.6924   54.2168 C.ar    1  ZINC000156038173    0.1000
     24 F24       -11.7598   -2.8280   54.1683 F       1  ZINC000156038173   -0.1200
     25 C25       -12.9239   -0.3739   56.8454 C.3     1  ZINC000156038173    0.4500
     26 F26       -13.3229    0.2109   55.6387 F       1  ZINC000156038173   -0.1700
     27 F27       -14.0102   -1.0407   57.4221 F       1  ZINC000156038173   -0.1600
     28 F28       -12.4707    0.6211   57.7183 F       1  ZINC000156038173   -0.1700
     29 H29        -9.5477   -4.4491   60.2498 H       1  ZINC000156038173    0.0600
     30 H30        -8.7397   -4.5289   58.6659 H       1  ZINC000156038173    0.0700
     31 H31        -7.9382   -3.7204   60.0342 H       1  ZINC000156038173    0.0800
     32 H32        -8.2335   -1.1195   59.8004 H       1  ZINC000156038173    0.1000
     33 H33        -9.9422   -0.6484   59.6368 H       1  ZINC000156038173    0.0900
     34 H34       -10.3549   -2.3857   61.5543 H       1  ZINC000156038173    0.1100
     35 H35        -8.6063   -2.2306   61.8487 H       1  ZINC000156038173    0.1100
     36 H36       -10.5736    2.0388   62.2690 H       1  ZINC000156038173    0.0600
     37 H37        -9.9070    3.2902   63.3451 H       1  ZINC000156038173    0.0700
     38 H38        -8.9631    2.7244   61.9461 H       1  ZINC000156038173    0.0800
     39 H39        -9.5559    0.1479   65.3100 H       1  ZINC000156038173    0.0700
     40 H40       -10.2532    1.7856   65.3094 H       1  ZINC000156038173    0.0800
     41 H41       -10.9199    0.5341   64.2335 H       1  ZINC000156038173    0.0700
     42 H42        -7.0486    2.1822   63.4571 H       1  ZINC000156038173    0.0800
     43 H43        -7.9925    2.7481   64.8561 H       1  ZINC000156038173    0.0700
     44 H44        -7.2952    1.1103   64.8566 H       1  ZINC000156038173    0.0600
     45 H45       -10.7366   -0.6278   58.2630 H       1  ZINC000156038173    0.4100
     46 H46       -10.2419    0.8220   56.3247 H       1  ZINC000156038173    0.1400
     47 H47        -8.9558    1.5448   54.3544 H       1  ZINC000156038173    0.1500
     48 H48        -8.9980    0.2001   52.2931 H       1  ZINC000156038173    0.1500
@<TRIPOS>BOND
     1     1     2    1
     2     1    29    1
     3     1    30    1
     4     1    31    1
     5     2     3    1
     6     2    12   am
     7     3     4    1
     8     3    32    1
     9     3    33    1
    10     4     5    1
    11     4    34    1
    12     4    35    1
    13     5     6    2
    14     5     7    1
    15     7     8    1
    16     8     9    1
    17     8    10    1
    18     8    11    1
    19     9    36    1
    20     9    37    1
    21     9    38    1
    22    10    39    1
    23    10    40    1
    24    10    41    1
    25    11    42    1
    26    11    43    1
    27    11    44    1
    28    12    13    2
    29    12    14   am
    30    14    15    1
    31    14    45    1
    32    15    16    1
    33    15    17    1
    34    15    25    1
    35    17    23   ar
    36    17    18   ar
    37    18    19   ar
    38    18    46    1
    39    19    20   ar
    40    19    47    1
    41    20    21   ar
    42    20    48    1
    43    21    22    1
    44    21    23   ar
    45    23    24    1
    46    25    26    1
    47    25    27    1
    48    25    28    1
@<TRIPOS>SUBSTRUCTURE
     1 ZINC000156038173        1 TEMP              0 ****  ****    0 ROOT


##########                                Name:    ZINC000179743483
##########                DOCK_Rotatable_Bonds:                   5
##########                         Heavy_Atoms:                  23
##########                    Molecular_Weight:             393.347
##########                DOCK_Rotatable_Bonds:                   5
##########                       Formal_Charge:          -0.0199999
##########                     HBond_Acceptors:                   4
##########                        HBond_Donors:                   0
##########                         Heavy_Atoms:                  23
##########                          Grid_Score:          -31.491213
##########                     Grid_vdw_energy:          -30.102043
##########                      Grid_es_energy:           -1.389169
##########           Internal_energy_repulsive:           25.136147

@<TRIPOS>MOLECULE
ZINC000179743483
 44 46 1 0 0
SMALL
USER_CHARGES


@<TRIPOS>ATOM
      1 C1          1.0496    2.9979   47.7889 C.3     1  ZINC000179743483   -0.1400
      2 C2          0.0798    2.4524   48.8392 C.3     1  ZINC000179743483   -0.1000
      3 H3         -0.8839    2.2482   48.3726 H       1  ZINC000179743483    0.1000
      4 C4          0.6440    1.1592   49.4312 C.3     1  ZINC000179743483   -0.0700
      5 C5          1.9608    1.4476   50.1049 C.ar    1  ZINC000179743483   -0.0600
      6 C6          3.1380    1.3653   49.3847 C.ar    1  ZINC000179743483   -0.1100
      7 C7          4.3460    1.6302   50.0020 C.ar    1  ZINC000179743483   -0.0900
      8 C8          4.3769    1.9777   51.3406 C.ar    1  ZINC000179743483   -0.0900
      9 Br9         6.0291    2.3408   52.1855 Br      1  ZINC000179743483   -0.0500
     10 C10         3.1987    2.0599   52.0607 C.ar    1  ZINC000179743483   -0.0900
     11 C11         1.9908    1.7999   51.4412 C.ar    1  ZINC000179743483   -0.1100
     12 C12        -0.0984    3.4708   49.9354 C.2     1  ZINC000179743483    0.5200
     13 O13         0.6989    4.3765   50.0572 O.2     1  ZINC000179743483   -0.5300
     14 N14        -1.1440    3.3754   50.7805 N.am    1  ZINC000179743483   -0.6100
     15 C15        -1.3310    4.3608   51.8541 C.3     1  ZINC000179743483    0.1000
     16 C16        -2.7455    4.9399   51.7511 C.3     1  ZINC000179743483   -0.1400
     17 C17        -3.7627    3.7965   51.7632 C.3     1  ZINC000179743483   -0.1100
     18 C18        -3.5241    2.8864   50.5562 C.3     1  ZINC000179743483   -0.0200
     19 H19        -3.6129    3.4683   49.6387 H       1  ZINC000179743483    0.0900
     20 C20        -4.5469    1.7797   50.5508 C.2     1  ZINC000179743483    0.0500
     21 N21        -4.3345    0.5800   50.1262 N.2     1  ZINC000179743483   -0.4700
     22 C22        -5.3410   -0.2682   50.1934 C.2     1  ZINC000179743483    0.0400
     23 C23        -6.4648    0.2448   50.7030 C.2     1  ZINC000179743483   -0.2600
     24 S24        -6.1545    1.9300   51.1131 S.3     1  ZINC000179743483    0.1300
     25 C25        -2.1218    2.2875   50.6419 C.3     1  ZINC000179743483    0.1200
     26 H26         1.9880    3.2742   48.2696 H       1  ZINC000179743483    0.0700
     27 H27         1.2384    2.2324   47.0363 H       1  ZINC000179743483    0.0700
     28 H28         0.6131    3.8758   47.3125 H       1  ZINC000179743483    0.0600
     29 H29        -0.0579    0.7578   50.1622 H       1  ZINC000179743483    0.0900
     30 H30         0.7952    0.4307   48.6346 H       1  ZINC000179743483    0.0800
     31 H31         3.1138    1.0936   48.3398 H       1  ZINC000179743483    0.1300
     32 H32         5.2656    1.5655   49.4394 H       1  ZINC000179743483    0.1300
     33 H33         3.2224    2.3312   53.1057 H       1  ZINC000179743483    0.1300
     34 H34         1.0708    1.8642   52.0034 H       1  ZINC000179743483    0.1300
     35 H35        -1.2045    3.8753   52.8218 H       1  ZINC000179743483    0.0700
     36 H36        -0.5995    5.1617   51.7464 H       1  ZINC000179743483    0.0900
     37 H37        -2.9308    5.6006   52.5980 H       1  ZINC000179743483    0.0800
     38 H38        -2.8416    5.5024   50.8223 H       1  ZINC000179743483    0.0700
     39 H39        -3.6493    3.2194   52.6810 H       1  ZINC000179743483    0.0800
     40 H40        -4.7712    4.2070   51.7148 H       1  ZINC000179743483    0.0700
     41 H41        -5.2639   -1.2936   49.8632 H       1  ZINC000179743483    0.1800
     42 H42        -7.3974   -0.2819   50.8424 H       1  ZINC000179743483    0.1800
     43 H43        -1.9114    1.7186   49.7362 H       1  ZINC000179743483    0.0900
     44 H44        -2.0566    1.6326   51.5107 H       1  ZINC000179743483    0.0800
@<TRIPOS>BOND
     1     1     2    1
     2     1    26    1
     3     1    27    1
     4     1    28    1
     5     2     3    1
     6     2     4    1
     7     2    12    1
     8     4     5    1
     9     4    29    1
    10     4    30    1
    11     5    11   ar
    12     5     6   ar
    13     6     7   ar
    14     6    31    1
    15     7     8   ar
    16     7    32    1
    17     8     9    1
    18     8    10   ar
    19    10    11   ar
    20    10    33    1
    21    11    34    1
    22    12    13    2
    23    12    14   am
    24    14    25    1
    25    14    15    1
    26    15    16    1
    27    15    35    1
    28    15    36    1
    29    16    17    1
    30    16    37    1
    31    16    38    1
    32    17    18    1
    33    17    39    1
    34    17    40    1
    35    18    19    1
    36    18    20    1
    37    18    25    1
    38    20    24    1
    39    20    21    2
    40    21    22    1
    41    22    23    2
    42    22    41    1
    43    23    24    1
    44    23    42    1
    45    25    43    1
    46    25    44    1
@<TRIPOS>SUBSTRUCTURE
     1 ZINC000179743483        1 TEMP              0 ****  ****    0 ROOT


##########                                Name:    ZINC000459459628
##########                DOCK_Rotatable_Bonds:                   8
##########                         Heavy_Atoms:                  27
##########                    Molecular_Weight:             377.366
##########                DOCK_Rotatable_Bonds:                   8
##########                       Formal_Charge:         -0.00999984
##########                     HBond_Acceptors:                   8
##########                        HBond_Donors:                   1
##########                         Heavy_Atoms:                  27
##########                          Grid_Score:          -31.443995
##########                     Grid_vdw_energy:          -29.918114
##########                      Grid_es_energy:           -1.525881
##########           Internal_energy_repulsive:           14.662930

@<TRIPOS>MOLECULE
ZINC000459459628
 45 46 1 0 0
SMALL
USER_CHARGES


@<TRIPOS>ATOM
      1 C1        -11.6688   -3.0788   52.7505 C.3     1  ZINC000459459628   -0.1600
      2 C2        -11.4243   -1.8796   53.6688 C.3     1  ZINC000459459628    0.1600
      3 H3        -10.4223   -1.9450   54.0929 H       1  ZINC000459459628    0.1100
      4 C4        -12.4572   -1.8828   54.7976 C.3     1  ZINC000459459628   -0.0900
      5 C5        -12.0492   -2.8826   55.8488 C.ar    1  ZINC000459459628   -0.0500
      6 C6        -12.6069   -4.1474   55.8528 C.ar    1  ZINC000459459628   -0.1200
      7 C7        -12.2336   -5.0657   56.8166 C.ar    1  ZINC000459459628   -0.0900
      8 C8        -11.3024   -4.7201   57.7771 C.ar    1  ZINC000459459628   -0.1600
      9 C9        -10.7426   -3.4535   57.7738 C.ar    1  ZINC000459459628    0.1000
     10 F10        -9.8320   -3.1144   58.7125 F       1  ZINC000459459628   -0.1400
     11 C11       -11.1132   -2.5365   56.8051 C.ar    1  ZINC000459459628   -0.1500
     12 N12       -11.5481   -0.6404   52.8972 N.am    1  ZINC000459459628   -0.6200
     13 C13       -12.8291   -0.2860   52.2810 C.3     1  ZINC000459459628    0.0700
     14 C14       -10.4834    0.1735   52.7542 C.2     1  ZINC000459459628    0.7100
     15 O15       -10.5856    1.2012   52.1126 O.2     1  ZINC000459459628   -0.5700
     16 N16        -9.3054   -0.1520   53.3223 N.am    1  ZINC000459459628   -0.6800
     17 C17        -8.1979    0.6946   53.1736 C.ar    1  ZINC000459459628    0.1500
     18 C18        -7.3200    0.5068   52.1219 C.ar    1  ZINC000459459628   -0.0400
     19 C19        -6.2175    1.3533   51.9770 C.ar    1  ZINC000459459628   -0.0300
     20 C20        -5.3054    1.1637   50.8895 C.1     1  ZINC000459459628    0.2600
     21 N21        -4.5818    1.0134   50.0268 N.1     1  ZINC000459459628   -0.4100
     22 C22        -6.0072    2.3851   52.8952 C.ar    1  ZINC000459459628   -0.0500
     23 C23        -6.8860    2.5667   53.9420 C.ar    1  ZINC000459459628   -0.1700
     24 C24        -7.9841    1.7307   54.0836 C.ar    1  ZINC000459459628    0.1100
     25 O25        -8.8468    1.9141   55.1167 O.3     1  ZINC000459459628   -0.3200
     26 C26        -9.1835    3.2625   55.4492 C.3     1  ZINC000459459628    0.4100
     27 F27        -9.5237    3.9589   54.2846 F       1  ZINC000459459628   -0.1900
     28 F28       -10.2703    3.2680   56.3302 F       1  ZINC000459459628   -0.1900
     29 H29       -12.6708   -3.0133   52.3264 H       1  ZINC000459459628    0.0600
     30 H30       -10.9331   -3.0764   51.9463 H       1  ZINC000459459628    0.0600
     31 H31       -11.5767   -4.0007   53.3246 H       1  ZINC000459459628    0.0700
     32 H32       -12.5118   -0.8893   55.2428 H       1  ZINC000459459628    0.0800
     33 H33       -13.4332   -2.1553   54.3962 H       1  ZINC000459459628    0.0900
     34 H34       -13.3351   -4.4182   55.1026 H       1  ZINC000459459628    0.1300
     35 H35       -12.6703   -6.0534   56.8189 H       1  ZINC000459459628    0.1300
     36 H36       -11.0114   -5.4373   58.5303 H       1  ZINC000459459628    0.1300
     37 H37       -10.6770   -1.5486   56.8015 H       1  ZINC000459459628    0.1300
     38 H38       -13.4177    0.3062   52.9817 H       1  ZINC000459459628    0.0600
     39 H39       -12.6489    0.2947   51.3764 H       1  ZINC000459459628    0.0700
     40 H40       -13.3738   -1.1952   52.0268 H       1  ZINC000459459628    0.0800
     41 H41        -9.2238   -0.9719   53.8342 H       1  ZINC000459459628    0.4100
     42 H42        -7.4858   -0.2922   51.4144 H       1  ZINC000459459628    0.1600
     43 H43        -5.1559    3.0404   52.7852 H       1  ZINC000459459628    0.1400
     44 H44        -6.7214    3.3645   54.6511 H       1  ZINC000459459628    0.1500
     45 H45        -8.3285    3.7439   55.9239 H       1  ZINC000459459628    0.1900
@<TRIPOS>BOND
     1     1     2    1
     2     1    29    1
     3     1    30    1
     4     1    31    1
     5     2     3    1
     6     2     4    1
     7     2    12    1
     8     4     5    1
     9     4    32    1
    10     4    33    1
    11     5    11   ar
    12     5     6   ar
    13     6     7   ar
    14     6    34    1
    15     7     8   ar
    16     7    35    1
    17     8     9   ar
    18     8    36    1
    19     9    10    1
    20     9    11   ar
    21    11    37    1
    22    12    13    1
    23    12    14   am
    24    13    38    1
    25    13    39    1
    26    13    40    1
    27    14    15    2
    28    14    16   am
    29    16    17    1
    30    16    41    1
    31    17    24   ar
    32    17    18   ar
    33    18    19   ar
    34    18    42    1
    35    19    20    1
    36    19    22   ar
    37    20    21    3
    38    22    23   ar
    39    22    43    1
    40    23    24   ar
    41    23    44    1
    42    24    25    1
    43    25    26    1
    44    26    27    1
    45    26    28    1
    46    26    45    1
@<TRIPOS>SUBSTRUCTURE
     1 ZINC000459459628        1 TEMP              0 ****  ****    0 ROOT


##########                                Name:    ZINC000742270208
##########                DOCK_Rotatable_Bonds:                   5
##########                         Heavy_Atoms:                  25
##########                    Molecular_Weight:             376.328
##########                DOCK_Rotatable_Bonds:                   5
##########                       Formal_Charge:                0.02
##########                     HBond_Acceptors:                   9
##########                        HBond_Donors:                   0
##########                         Heavy_Atoms:                  25
##########                          Grid_Score:          -31.329554
##########                     Grid_vdw_energy:          -31.368500
##########                      Grid_es_energy:            0.038947
##########           Internal_energy_repulsive:           13.416534

@<TRIPOS>MOLECULE
ZINC000742270208
 37 38 1 0 0
SMALL
USER_CHARGES


@<TRIPOS>ATOM
      1 C1         -5.3445    1.5890   49.9894 C.3     1  ZINC000742270208   -0.1400
      2 C2         -5.4216    1.6069   51.5175 C.3     1  ZINC000742270208   -0.1400
      3 C3         -4.3610    2.5609   52.0705 C.3     1  ZINC000742270208   -0.1400
      4 C4         -6.7891    2.0733   51.9458 C.2     1  ZINC000742270208    0.4000
      5 O5         -6.9988    3.2543   52.1237 O.2     1  ZINC000742270208   -0.4300
      6 C6         -7.8701    1.0955   52.1483 C.ar    1  ZINC000742270208   -0.1000
      7 C7         -7.6499   -0.2602   51.8851 C.ar    1  ZINC000742270208   -0.0900
      8 C8         -8.6678   -1.1704   52.0773 C.ar    1  ZINC000742270208   -0.0200
      9 C9         -9.9050   -0.7451   52.5290 C.ar    1  ZINC000742270208   -0.6800
     10 S10       -11.1992   -1.9159   52.7715 S.o2    1  ZINC000742270208    2.6600
     11 O11       -12.0611   -1.7998   51.6477 O.2     1  ZINC000742270208   -0.9300
     12 O12       -10.5727   -3.1346   53.1478 O.2     1  ZINC000742270208   -0.9000
     13 O13       -12.0032   -1.4553   53.9790 O.3     1  ZINC000742270208   -0.6400
     14 C14       -12.3073   -2.4513   54.8538 C.ar    1  ZINC000742270208    0.0500
     15 C15       -13.2198   -3.4347   54.4974 C.ar    1  ZINC000742270208    0.0900
     16 F16       -13.8067   -3.4033   53.2809 F       1  ZINC000742270208   -0.0900
     17 C17       -13.5279   -4.4486   55.3897 C.ar    1  ZINC000742270208    0.1100
     18 F18       -14.4159   -5.4060   55.0433 F       1  ZINC000742270208   -0.1000
     19 C19       -12.9260   -4.4817   56.6360 C.ar    1  ZINC000742270208   -0.1100
     20 C20       -12.0160   -3.5015   56.9935 C.ar    1  ZINC000742270208    0.1200
     21 F21       -11.4300   -3.5359   58.2103 F       1  ZINC000742270208   -0.1000
     22 C22       -11.7013   -2.4889   56.1020 C.ar    1  ZINC000742270208    0.1200
     23 F23       -10.8129   -1.5329   56.4512 F       1  ZINC000742270208   -0.0900
     24 C24       -10.1308    0.5948   52.7919 C.ar    1  ZINC000742270208   -0.0300
     25 C25        -9.1212    1.5164   52.6105 C.ar    1  ZINC000742270208   -0.0800
     26 H26        -4.3554    1.2517   49.6795 H       1  ZINC000742270208    0.0700
     27 H27        -6.1001    0.9094   49.5955 H       1  ZINC000742270208    0.0600
     28 H28        -5.5229    2.5931   49.6048 H       1  ZINC000742270208    0.0600
     29 H29        -5.2432    0.6028   51.9021 H       1  ZINC000742270208    0.1000
     30 H30        -4.5394    3.5650   51.6858 H       1  ZINC000742270208    0.0700
     31 H31        -4.4160    2.5738   53.1590 H       1  ZINC000742270208    0.0600
     32 H32        -3.3719    2.2235   51.7606 H       1  ZINC000742270208    0.0700
     33 H33        -6.6852   -0.5935   51.5318 H       1  ZINC000742270208    0.1500
     34 H34        -8.4994   -2.2176   51.8744 H       1  ZINC000742270208    0.1500
     35 H35       -13.1669   -5.2730   57.3304 H       1  ZINC000742270208    0.1900
     36 H36       -11.0989    0.9189   53.1441 H       1  ZINC000742270208    0.1500
     37 H37        -9.2988    2.5617   52.8161 H       1  ZINC000742270208    0.1500
@<TRIPOS>BOND
     1     1     2    1
     2     1    26    1
     3     1    27    1
     4     1    28    1
     5     2     3    1
     6     2     4    1
     7     2    29    1
     8     3    30    1
     9     3    31    1
    10     3    32    1
    11     4     5    2
    12     4     6    1
    13     6    25   ar
    14     6     7   ar
    15     7     8   ar
    16     7    33    1
    17     8     9   ar
    18     8    34    1
    19     9    10    1
    20     9    24   ar
    21    10    11    2
    22    10    12    2
    23    10    13    1
    24    13    14    1
    25    14    22   ar
    26    14    15   ar
    27    15    16    1
    28    15    17   ar
    29    17    18    1
    30    17    19   ar
    31    19    20   ar
    32    19    35    1
    33    20    21    1
    34    20    22   ar
    35    22    23    1
    36    24    25   ar
    37    24    36    1
    38    25    37    1
@<TRIPOS>SUBSTRUCTURE
     1 ZINC000742270208        1 TEMP              0 ****  ****    0 ROOT


##########                                Name:    ZINC000252489163
##########                DOCK_Rotatable_Bonds:                   6
##########                         Heavy_Atoms:                  25
##########                    Molecular_Weight:             379.403
##########                DOCK_Rotatable_Bonds:                   6
##########                       Formal_Charge:          0.00999963
##########                     HBond_Acceptors:                  10
##########                        HBond_Donors:                   2
##########                         Heavy_Atoms:                  25
##########                          Grid_Score:          -31.326328
##########                     Grid_vdw_energy:          -30.005341
##########                      Grid_es_energy:           -1.320988
##########           Internal_energy_repulsive:           11.514582

@<TRIPOS>MOLECULE
ZINC000252489163
 45 46 1 0 0
SMALL
USER_CHARGES


@<TRIPOS>ATOM
      1 C1        -12.0129   -0.7232   57.4407 C.3     1  ZINC000252489163   -0.1100
      2 C2        -11.5011   -0.8283   56.0271 C.ar    1  ZINC000252489163   -0.0600
      3 C3        -10.4506   -0.0334   55.6131 C.ar    1  ZINC000252489163   -0.1300
      4 C4         -9.9791   -0.1312   54.3104 C.ar    1  ZINC000252489163    0.1700
      5 N5         -8.9143    0.6726   53.8878 N.am    1  ZINC000252489163   -0.6800
      6 C6         -9.1431    1.9398   53.4899 C.2     1  ZINC000252489163    0.7100
      7 O7        -10.2746    2.3847   53.4981 O.2     1  ZINC000252489163   -0.5500
      8 N8         -8.1175    2.7139   53.0829 N.am    1  ZINC000252489163   -0.6200
      9 C9         -8.3510    4.0972   52.6463 C.3     1  ZINC000252489163    0.1000
     10 C10        -7.7412    4.2842   51.2536 C.3     1  ZINC000252489163   -0.1400
     11 C11        -6.2665    3.8765   51.2879 C.3     1  ZINC000252489163   -0.1300
     12 C12        -6.1527    2.3990   51.6706 C.3     1  ZINC000252489163    0.1400
     13 H13        -6.7010    1.7932   50.9491 H       1  ZINC000252489163    0.0900
     14 N14        -4.7427    2.0013   51.6719 N.am    1  ZINC000252489163   -1.1100
     15 S15        -4.1024    1.2173   50.3613 S.o2    1  ZINC000252489163    2.6100
     16 C16        -4.3291    2.3768   48.9848 C.3     1  ZINC000252489163   -0.6700
     17 O17        -2.7233    1.0793   50.6749 O.2     1  ZINC000252489163   -0.9500
     18 O18        -4.9336    0.0768   50.1946 O.2     1  ZINC000252489163   -0.9500
     19 C19        -6.7440    2.1925   53.0734 C.3     1  ZINC000252489163    0.1100
     20 C20       -10.5663   -1.0283   53.4282 C.ar    1  ZINC000252489163   -0.1000
     21 C21       -11.6169   -1.8206   53.8485 C.ar    1  ZINC000252489163   -0.1600
     22 C22       -12.2548   -2.7946   52.8917 C.3     1  ZINC000252489163    0.5100
     23 F23       -11.4228   -3.9085   52.7365 F       1  ZINC000252489163   -0.1700
     24 F24       -13.4926   -3.2042   53.3993 F       1  ZINC000252489163   -0.1800
     25 F25       -12.4414   -2.1754   51.6512 F       1  ZINC000252489163   -0.1800
     26 C26       -12.0804   -1.7247   55.1476 C.ar    1  ZINC000252489163   -0.0900
     27 H27       -11.4677   -1.4201   58.0772 H       1  ZINC000252489163    0.0800
     28 H28       -11.8661    0.2933   57.8056 H       1  ZINC000252489163    0.0700
     29 H29       -13.0751   -0.9669   57.4616 H       1  ZINC000252489163    0.0700
     30 H30        -9.9961    0.6637   56.3015 H       1  ZINC000252489163    0.1300
     31 H31        -8.0116    0.3177   53.8812 H       1  ZINC000252489163    0.4100
     32 H32        -9.4229    4.2913   52.6049 H       1  ZINC000252489163    0.0800
     33 H33        -7.8797    4.7861   53.3473 H       1  ZINC000252489163    0.0800
     34 H34        -8.2744    3.6606   50.5361 H       1  ZINC000252489163    0.0700
     35 H35        -7.8225    5.3303   50.9582 H       1  ZINC000252489163    0.0900
     36 H36        -5.8237    4.0319   50.3041 H       1  ZINC000252489163    0.0800
     37 H37        -5.7388    4.4837   52.0234 H       1  ZINC000252489163    0.0800
     38 H38        -4.1843    2.1974   52.4404 H       1  ZINC000252489163    0.4200
     39 H39        -3.8012    3.3055   49.2014 H       1  ZINC000252489163    0.1300
     40 H40        -3.9311    1.9374   48.0703 H       1  ZINC000252489163    0.1300
     41 H41        -5.3914    2.5844   48.8558 H       1  ZINC000252489163    0.1300
     42 H42        -6.1396    2.7262   53.8068 H       1  ZINC000252489163    0.0800
     43 H43        -6.7565    1.1289   53.3116 H       1  ZINC000252489163    0.1100
     44 H44       -10.2023   -1.1063   52.4144 H       1  ZINC000252489163    0.1800
     45 H45       -12.9017   -2.3455   55.4739 H       1  ZINC000252489163    0.1300
@<TRIPOS>BOND
     1     1     2    1
     2     1    27    1
     3     1    28    1
     4     1    29    1
     5     2    26   ar
     6     2     3   ar
     7     3     4   ar
     8     3    30    1
     9     4     5    1
    10     4    20   ar
    11     5     6   am
    12     5    31    1
    13     6     7    2
    14     6     8   am
    15     8    19    1
    16     8     9    1
    17     9    10    1
    18     9    32    1
    19     9    33    1
    20    10    11    1
    21    10    34    1
    22    10    35    1
    23    11    12    1
    24    11    36    1
    25    11    37    1
    26    12    13    1
    27    12    14    1
    28    12    19    1
    29    14    15   am
    30    14    38    1
    31    15    16    1
    32    15    17    2
    33    15    18    2
    34    16    39    1
    35    16    40    1
    36    16    41    1
    37    19    42    1
    38    19    43    1
    39    20    21   ar
    40    20    44    1
    41    21    22    1
    42    21    26   ar
    43    22    23    1
    44    22    24    1
    45    22    25    1
    46    26    45    1
@<TRIPOS>SUBSTRUCTURE
     1 ZINC000252489163        1 TEMP              0 ****  ****    0 ROOT


##########                                Name:    ZINC001272744746
##########                DOCK_Rotatable_Bonds:                   6
##########                         Heavy_Atoms:                  25
##########                    Molecular_Weight:             348.417
##########                DOCK_Rotatable_Bonds:                   6
##########                       Formal_Charge:           0.0299999
##########                     HBond_Acceptors:                   6
##########                        HBond_Donors:                   1
##########                         Heavy_Atoms:                  25
##########                          Grid_Score:          -31.240606
##########                     Grid_vdw_energy:          -29.089258
##########                      Grid_es_energy:           -2.151348
##########           Internal_energy_repulsive:           30.235346

@<TRIPOS>MOLECULE
ZINC001272744746
 50 52 1 0 0
SMALL
USER_CHARGES


@<TRIPOS>ATOM
      1 C1         -9.6032    0.2981   54.9222 C.2     1  ZINC001272744746   -0.1700
      2 C2         -9.3063    1.2366   54.0577 C.2     1  ZINC001272744746   -0.1700
      3 C3         -8.3849    2.3615   54.4534 C.3     1  ZINC001272744746    0.1500
      4 N4         -7.6936    2.8675   53.2649 N.am    1  ZINC001272744746   -0.6100
      5 C5         -6.3510    2.4449   52.8441 C.3     1  ZINC001272744746    0.0700
      6 C6         -6.2234    2.8946   51.3785 C.3     1  ZINC001272744746    0.1100
      7 C7         -7.2256    4.0609   51.3005 C.3     1  ZINC001272744746   -0.1500
      8 C8         -8.2088    3.7745   52.4158 C.2     1  ZINC001272744746    0.5200
      9 O9         -9.2991    4.2931   52.5311 O.2     1  ZINC001272744746   -0.5200
     10 C10        -6.6353    1.7721   50.4361 C.3     1  ZINC001272744746   -0.1000
     11 C11        -5.6327    0.6187   50.5514 C.3     1  ZINC001272744746   -0.1200
     12 C12        -4.2260    1.1477   50.2581 C.3     1  ZINC001272744746   -0.1200
     13 C13        -3.8899    2.2711   51.2413 C.3     1  ZINC001272744746    0.0500
     14 N14        -4.8684    3.3583   51.0960 N.3     1  ZINC001272744746   -0.5100
     15 C15        -4.5150    4.5019   51.9478 C.3     1  ZINC001272744746    0.0800
     16 C16        -3.1199    4.3152   52.4860 C.ar    1  ZINC001272744746   -0.0200
     17 C17        -2.0321    4.7267   51.7393 C.ar    1  ZINC001272744746   -0.1700
     18 C18        -0.7485    4.5570   52.2298 C.ar    1  ZINC001272744746    0.1200
     19 F19         0.3135    4.9600   51.4982 F       1  ZINC001272744746   -0.1200
     20 C20        -0.5534    3.9737   53.4730 C.ar    1  ZINC001272744746    0.0400
     21 O21         0.7068    3.8063   53.9576 O.3     1  ZINC001272744746   -0.4700
     22 C22        -1.6493    3.5606   54.2235 C.ar    1  ZINC001272744746    0.1300
     23 O23        -1.4632    2.9884   55.4430 O.3     1  ZINC001272744746   -0.3000
     24 C24        -2.6357    2.6295   56.1769 C.3     1  ZINC001272744746    0.0200
     25 C25        -2.9315    3.7379   53.7282 C.ar    1  ZINC001272744746   -0.1800
     26 H26        -9.1875    0.3306   55.9185 H       1  ZINC001272744746    0.1000
     27 H27       -10.2670   -0.5057   54.6400 H       1  ZINC001272744746    0.1000
     28 H28        -9.7219    1.2041   53.0614 H       1  ZINC001272744746    0.1100
     29 H29        -8.9660    3.1652   54.9055 H       1  ZINC001272744746    0.0900
     30 H30        -7.6515    1.9949   55.1718 H       1  ZINC001272744746    0.0800
     31 H31        -5.5924    2.9325   53.4562 H       1  ZINC001272744746    0.0700
     32 H32        -6.2562    1.3614   52.9161 H       1  ZINC001272744746    0.0900
     33 H33        -6.7191    5.0115   51.4674 H       1  ZINC001272744746    0.1100
     34 H34        -7.7352    4.0627   50.3369 H       1  ZINC001272744746    0.1100
     35 H35        -7.6301    1.4176   50.7058 H       1  ZINC001272744746    0.0700
     36 H36        -6.6464    2.1433   49.4114 H       1  ZINC001272744746    0.0800
     37 H37        -5.6646    0.2074   51.5604 H       1  ZINC001272744746    0.0600
     38 H38        -5.8873   -0.1589   49.8312 H       1  ZINC001272744746    0.0700
     39 H39        -3.5032    0.3395   50.3688 H       1  ZINC001272744746    0.0700
     40 H40        -4.1876    1.5330   49.2391 H       1  ZINC001272744746    0.0700
     41 H41        -3.9246    1.8849   52.2600 H       1  ZINC001272744746    0.0400
     42 H42        -2.8904    2.6514   51.0309 H       1  ZINC001272744746    0.0900
     43 H43        -4.5582    5.4193   51.3605 H       1  ZINC001272744746    0.1000
     44 H44        -5.2188    4.5682   52.7774 H       1  ZINC001272744746    0.0600
     45 H45        -2.1835    5.1810   50.7712 H       1  ZINC001272744746    0.1400
     46 H46         0.7399    3.4101   54.8390 H       1  ZINC001272744746    0.3900
     47 H47        -3.2183    1.9098   55.6017 H       1  ZINC001272744746    0.0600
     48 H48        -2.3464    2.1845   57.1290 H       1  ZINC001272744746    0.1100
     49 H49        -3.2367    3.5201   56.3599 H       1  ZINC001272744746    0.0600
     50 H50        -3.7836    3.4178   54.3094 H       1  ZINC001272744746    0.1400
@<TRIPOS>BOND
     1     1     2    2
     2     1    26    1
     3     1    27    1
     4     2     3    1
     5     2    28    1
     6     3     4    1
     7     3    29    1
     8     3    30    1
     9     4     8   am
    10     4     5    1
    11     5     6    1
    12     5    31    1
    13     5    32    1
    14     6    14    1
    15     6     7    1
    16     6    10    1
    17     7     8    1
    18     7    33    1
    19     7    34    1
    20     8     9    2
    21    10    11    1
    22    10    35    1
    23    10    36    1
    24    11    12    1
    25    11    37    1
    26    11    38    1
    27    12    13    1
    28    12    39    1
    29    12    40    1
    30    13    14    1
    31    13    41    1
    32    13    42    1
    33    14    15    1
    34    15    16    1
    35    15    43    1
    36    15    44    1
    37    16    25   ar
    38    16    17   ar
    39    17    18   ar
    40    17    45    1
    41    18    19    1
    42    18    20   ar
    43    20    21    1
    44    20    22   ar
    45    21    46    1
    46    22    23    1
    47    22    25   ar
    48    23    24    1
    49    24    47    1
    50    24    48    1
    51    24    49    1
    52    25    50    1
@<TRIPOS>SUBSTRUCTURE
     1 ZINC001272744746        1 TEMP              0 ****  ****    0 ROOT


##########                                Name:    ZINC000286156371
##########                DOCK_Rotatable_Bonds:                   7
##########                         Heavy_Atoms:                  25
##########                    Molecular_Weight:             350.418
##########                DOCK_Rotatable_Bonds:                   7
##########                       Formal_Charge:          0.00999908
##########                     HBond_Acceptors:                   8
##########                        HBond_Donors:                   2
##########                         Heavy_Atoms:                  25
##########                          Grid_Score:          -31.239201
##########                     Grid_vdw_energy:          -30.947910
##########                      Grid_es_energy:           -0.291291
##########           Internal_energy_repulsive:           15.465504

@<TRIPOS>MOLECULE
ZINC000286156371
 51 53 1 0 0
SMALL
USER_CHARGES


@<TRIPOS>ATOM
      1 C1         -9.9941   -3.3450   59.3794 C.3     1  <0>        -0.1800
      2 C2        -10.8563   -2.2911   58.6815 C.3     1  <0>         0.1400
      3 C3        -12.3323   -2.5588   58.9827 C.3     1  <0>        -0.1800
      4 C4        -10.4754   -0.9005   59.1932 C.3     1  <0>        -0.1400
      5 O5        -10.6352   -2.3568   57.2480 O.3     1  <0>        -0.3600
      6 C6        -11.2937   -3.3166   56.5713 C.2     1  <0>         0.6800
      7 O7        -11.0365   -4.4870   56.7724 O.2     1  <0>        -0.5600
      8 N8        -12.2380   -2.9792   55.6708 N.am    1  <0>        -0.5800
      9 C9        -13.0318   -3.9234   54.8636 C.3     1  <0>         0.0700
     10 C10       -14.3221   -3.1470   54.4999 C.3     1  <0>         0.0900
     11 H11       -14.7695   -3.5389   53.5866 H       1  <0>         0.0900
     12 O12       -15.2584   -3.1756   55.5790 O.3     1  <0>        -0.5500
     13 C13       -13.7709   -1.7135   54.2785 C.3     1  <0>        -0.1200
     14 C14       -12.6516   -1.6087   55.3356 C.3     1  <0>         0.1500
     15 H15       -13.0273   -1.1017   56.2243 H       1  <0>         0.1100
     16 C16       -11.4806   -0.8483   54.7684 C.2     1  <0>         0.5200
     17 O17       -10.9069   -0.0233   55.4475 O.2     1  <0>        -0.4900
     18 N18       -11.0710   -1.0851   53.5063 N.am    1  <0>        -0.6300
     19 C19        -9.9810   -0.3791   52.9793 C.2     1  <0>         0.3000
     20 N20        -8.8968   -0.9095   52.4599 N.2     1  <0>        -0.3200
     21 N21        -8.0583    0.1299   52.0510 N.pl3   1  <0>        -0.3600
     22 C22        -6.7419    0.0160   51.4155 C.3     1  <0>         0.1400
     23 C23        -6.3923    1.3563   50.7604 C.3     1  <0>        -0.1400
     24 C24        -6.5870    2.4883   51.7735 C.3     1  <0>        -0.1300
     25 C25        -8.0854    2.6617   52.0542 C.3     1  <0>        -0.0600
     26 C26        -8.6711    1.3011   52.3414 C.2     1  <0>         0.0900
     27 C27        -9.8600    1.0197   52.9087 C.2     1  <0>        -0.2600
     28 H28       -10.2655   -4.3358   59.0149 H       1  <0>         0.0900
     29 H29        -8.9426   -3.1543   59.1648 H       1  <0>         0.0600
     30 H30       -10.1601   -3.2957   60.4555 H       1  <0>         0.0700
     31 H31       -12.4982   -2.5095   60.0588 H       1  <0>         0.0700
     32 H32       -12.9465   -1.8079   58.4857 H       1  <0>         0.0600
     33 H33       -12.6036   -3.5496   58.6183 H       1  <0>         0.0900
     34 H34        -9.4239   -0.7097   58.9786 H       1  <0>         0.0700
     35 H35       -11.0896   -0.1497   58.6960 H       1  <0>         0.0700
     36 H36       -10.6414   -0.8511   60.2694 H       1  <0>         0.0800
     37 H37       -12.4883   -4.2003   53.9602 H       1  <0>         0.0800
     38 H38       -13.2751   -4.8108   55.4479 H       1  <0>         0.0900
     39 H39       -15.5774   -4.0615   55.7995 H       1  <0>         0.3900
     40 H40       -13.3670   -1.6069   53.2718 H       1  <0>         0.1000
     41 H41       -14.5455   -0.9696   54.4653 H       1  <0>         0.1100
     42 H42       -11.5306   -1.7441   52.9628 H       1  <0>         0.4200
     43 H43        -5.9929   -0.2293   52.1684 H       1  <0>         0.0800
     44 H44        -6.7693   -0.7657   50.6564 H       1  <0>         0.0900
     45 H45        -5.3535    1.3391   50.4305 H       1  <0>         0.0900
     46 H46        -7.0431    1.5216   49.9018 H       1  <0>         0.0800
     47 H47        -6.0691    2.2408   52.7001 H       1  <0>         0.0700
     48 H48        -6.1832    3.4151   51.3660 H       1  <0>         0.0800
     49 H49        -8.2250    3.3119   52.9178 H       1  <0>         0.0900
     50 H50        -8.5750    3.0964   51.1827 H       1  <0>         0.0900
     51 H51       -10.5887    1.7399   53.2503 H       1  <0>         0.1700
@<TRIPOS>BOND
     1     1     2    1
     2     1    28    1
     3     1    29    1
     4     1    30    1
     5     2     3    1
     6     2     4    1
     7     2     5    1
     8     3    31    1
     9     3    32    1
    10     3    33    1
    11     4    34    1
    12     4    35    1
    13     4    36    1
    14     5     6    1
    15     6     7    2
    16     6     8   am
    17     8    14    1
    18     8     9    1
    19     9    10    1
    20     9    37    1
    21     9    38    1
    22    10    11    1
    23    10    12    1
    24    10    13    1
    25    12    39    1
    26    13    14    1
    27    13    40    1
    28    13    41    1
    29    14    15    1
    30    14    16    1
    31    16    17    2
    32    16    18   am
    33    18    19    1
    34    18    42    1
    35    19    27    1
    36    19    20    2
    37    20    21    1
    38    21    26    1
    39    21    22    1
    40    22    23    1
    41    22    43    1
    42    22    44    1
    43    23    24    1
    44    23    45    1
    45    23    46    1
    46    24    25    1
    47    24    47    1
    48    24    48    1
    49    25    26    1
    50    25    49    1
    51    25    50    1
    52    26    27    2
    53    27    51    1
@<TRIPOS>SUBSTRUCTURE
     1 <0>         1 TEMP              0 ****  ****    0 ROOT


##########                                Name:    ZINC000130059363
##########                DOCK_Rotatable_Bonds:                   4
##########                         Heavy_Atoms:                  29
##########                    Molecular_Weight:             389.497
##########                DOCK_Rotatable_Bonds:                   4
##########                       Formal_Charge:          -0.0100003
##########                     HBond_Acceptors:                   5
##########                        HBond_Donors:                   0
##########                         Heavy_Atoms:                  29
##########                          Grid_Score:          -31.184061
##########                     Grid_vdw_energy:          -31.170710
##########                      Grid_es_energy:           -0.013352
##########           Internal_energy_repulsive:           24.491760

@<TRIPOS>MOLECULE
ZINC000130059363
 56 60 1 0 0
SMALL
USER_CHARGES


@<TRIPOS>ATOM
      1 C1        -10.7679    2.0677   55.3427 C.3     1  ZINC000130059363   -0.1200
      2 C2        -10.5529    1.0158   54.2852 C.ar    1  ZINC000130059363    0.1900
      3 N3         -9.4365    1.0103   53.5906 N.ar    1  ZINC000130059363   -0.4800
      4 C4         -9.2031    0.1030   52.6493 C.ar    1  ZINC000130059363    0.2000
      5 C5         -7.9272    0.1420   51.8961 C.ar    1  ZINC000130059363   -0.0600
      6 C6         -7.4677   -0.9983   51.2382 C.ar    1  ZINC000130059363   -0.1000
      7 C7         -6.2794   -0.9558   50.5381 C.ar    1  ZINC000130059363   -0.1200
      8 C8         -5.5440    0.2149   50.4885 C.ar    1  ZINC000130059363   -0.1000
      9 C9         -5.9945    1.3492   51.1397 C.ar    1  ZINC000130059363   -0.1300
     10 C10        -7.1846    1.3206   51.8378 C.ar    1  ZINC000130059363   -0.0700
     11 C11       -10.1429   -0.8864   52.3608 C.ar    1  ZINC000130059363   -0.1800
     12 C12       -11.3289   -0.9161   53.0673 C.ar    1  ZINC000130059363   -0.0400
     13 C13       -11.5392    0.0536   54.0571 C.ar    1  ZINC000130059363   -0.1900
     14 C14       -12.7912    0.0642   54.8408 C.2     1  ZINC000130059363    0.5700
     15 O15       -13.7778    0.6235   54.4029 O.2     1  ZINC000130059363   -0.5200
     16 N16       -12.8398   -0.5462   56.0415 N.am    1  ZINC000130059363   -0.6000
     17 C17       -14.0786   -0.5510   56.8325 C.3     1  ZINC000130059363    0.1000
     18 C18       -14.4343   -2.0030   57.1659 C.3     1  ZINC000130059363   -0.1500
     19 C19       -13.2513   -2.6823   57.8463 C.3     1  ZINC000130059363    0.1500
     20 H20       -13.5203   -3.7213   58.0370 H       1  ZINC000130059363    0.0700
     21 C21       -12.0207   -2.6681   56.9417 C.3     1  ZINC000130059363   -0.1100
     22 H22       -12.2135   -3.2476   56.0388 H       1  ZINC000130059363    0.1000
     23 C23       -10.8492   -3.2833   57.7236 C.3     1  ZINC000130059363   -0.1200
     24 C24       -10.4841   -2.3312   58.8653 C.3     1  ZINC000130059363   -0.1400
     25 C25       -11.7196   -1.9206   59.6133 C.2     1  ZINC000130059363    0.5200
     26 O26       -11.5877   -1.4335   60.7161 O.2     1  ZINC000130059363   -0.5400
     27 N27       -12.9457   -2.0525   59.1212 N.am    1  ZINC000130059363   -0.5700
     28 C28       -14.0696   -1.5601   59.9216 C.3     1  ZINC000130059363    0.0700
     29 C29       -15.2112   -2.5364   60.2123 C.3     1  ZINC000130059363   -0.1800
     30 C30       -14.2425   -2.1383   61.3276 C.3     1  ZINC000130059363   -0.1600
     31 C31       -11.6582   -1.2265   56.5859 C.3     1  ZINC000130059363    0.1100
     32 H32       -10.4772    1.6700   56.3150 H       1  ZINC000130059363    0.0800
     33 H33       -10.1615    2.9437   55.1124 H       1  ZINC000130059363    0.0800
     34 H34       -11.8204    2.3502   55.3656 H       1  ZINC000130059363    0.1000
     35 H35        -8.0406   -1.9130   51.2767 H       1  ZINC000130059363    0.1300
     36 H36        -5.9225   -1.8384   50.0280 H       1  ZINC000130059363    0.1300
     37 H37        -4.6143    0.2434   49.9397 H       1  ZINC000130059363    0.1300
     38 H38        -5.4161    2.2603   51.0978 H       1  ZINC000130059363    0.1300
     39 H39        -7.5354    2.2068   52.3458 H       1  ZINC000130059363    0.1400
     40 H40        -9.9454   -1.6203   51.5935 H       1  ZINC000130059363    0.1400
     41 H41       -12.0746   -1.6706   52.8647 H       1  ZINC000130059363    0.1400
     42 H42       -13.9276    0.0107   57.7544 H       1  ZINC000130059363    0.0700
     43 H43       -14.8848   -0.0990   56.2547 H       1  ZINC000130059363    0.0900
     44 H44       -15.2956   -2.0207   57.8338 H       1  ZINC000130059363    0.0900
     45 H45       -14.6789   -2.5360   56.2471 H       1  ZINC000130059363    0.0800
     46 H46       -11.1463   -4.2495   58.1314 H       1  ZINC000130059363    0.0800
     47 H47        -9.9921   -3.4103   57.0625 H       1  ZINC000130059363    0.0900
     48 H48        -9.7984   -2.8327   59.5483 H       1  ZINC000130059363    0.1000
     49 H49        -9.9988   -1.4455   58.4557 H       1  ZINC000130059363    0.1000
     50 H50       -14.3289   -0.5119   59.7731 H       1  ZINC000130059363    0.1100
     51 H51       -16.2219   -2.1306   60.2550 H       1  ZINC000130059363    0.1100
     52 H52       -15.1261   -3.5451   59.8079 H       1  ZINC000130059363    0.1000
     53 H53       -13.5200   -2.8849   61.6570 H       1  ZINC000130059363    0.1000
     54 H54       -14.6159   -1.4705   62.1040 H       1  ZINC000130059363    0.1000
     55 H55       -10.8605   -1.2241   55.8432 H       1  ZINC000130059363    0.1000
     56 H56       -11.3245   -0.7031   57.4819 H       1  ZINC000130059363    0.0700
@<TRIPOS>BOND
     1     1     2    1
     2     1    32    1
     3     1    33    1
     4     1    34    1
     5     2    13   ar
     6     2     3   ar
     7     3     4   ar
     8     4     5    1
     9     4    11   ar
    10     5    10   ar
    11     5     6   ar
    12     6     7   ar
    13     6    35    1
    14     7     8   ar
    15     7    36    1
    16     8     9   ar
    17     8    37    1
    18     9    10   ar
    19     9    38    1
    20    10    39    1
    21    11    12   ar
    22    11    40    1
    23    12    13   ar
    24    12    41    1
    25    13    14    1
    26    14    15    2
    27    14    16   am
    28    16    31    1
    29    16    17    1
    30    17    18    1
    31    17    42    1
    32    17    43    1
    33    18    19    1
    34    18    44    1
    35    18    45    1
    36    19    20    1
    37    19    27    1
    38    19    21    1
    39    21    22    1
    40    21    23    1
    41    21    31    1
    42    23    24    1
    43    23    46    1
    44    23    47    1
    45    24    25    1
    46    24    48    1
    47    24    49    1
    48    25    26    2
    49    25    27   am
    50    27    28    1
    51    28    30    1
    52    28    29    1
    53    28    50    1
    54    29    30    1
    55    29    51    1
    56    29    52    1
    57    30    53    1
    58    30    54    1
    59    31    55    1
    60    31    56    1
@<TRIPOS>SUBSTRUCTURE
     1 ZINC000130059363        1 TEMP              0 ****  ****    0 ROOT


##########                                Name:    ZINC000822206030
##########                DOCK_Rotatable_Bonds:                   7
##########                         Heavy_Atoms:                  29
##########                    Molecular_Weight:             391.448
##########                DOCK_Rotatable_Bonds:                   7
##########                       Formal_Charge:         -0.00999995
##########                     HBond_Acceptors:                   7
##########                        HBond_Donors:                   1
##########                         Heavy_Atoms:                  29
##########                          Grid_Score:          -31.156954
##########                     Grid_vdw_energy:          -29.875425
##########                      Grid_es_energy:           -1.281528
##########           Internal_energy_repulsive:           21.862732

@<TRIPOS>MOLECULE
ZINC000822206030
 51 55 1 0 0
SMALL
USER_CHARGES


@<TRIPOS>ATOM
      1 C1        -12.0341   -4.5647   57.0695 C.3     1  ZINC000822206030   -0.1300
      2 C2        -11.2940   -3.7064   58.0629 C.ar    1  ZINC000822206030   -0.0400
      3 C3        -10.1209   -4.1623   58.6310 C.ar    1  ZINC000822206030   -0.1500
      4 C4         -9.4407   -3.3741   59.5443 C.ar    1  ZINC000822206030    0.1100
      5 F5         -8.2934   -3.8220   60.0993 F       1  ZINC000822206030   -0.1400
      6 C6         -9.9348   -2.1274   59.8890 C.ar    1  ZINC000822206030   -0.1500
      7 C7        -11.1080   -1.6678   59.3230 C.ar    1  ZINC000822206030   -0.0800
      8 C8        -11.7885   -2.4541   58.4033 C.ar    1  ZINC000822206030    0.1100
      9 N9        -12.9777   -1.9898   57.8280 N.am    1  ZINC000822206030   -0.5600
     10 C10       -14.2690   -2.3801   58.3994 C.3     1  ZINC000822206030    0.1500
     11 C11       -14.4308   -1.7442   59.7560 C.ar    1  ZINC000822206030   -0.0900
     12 C12       -14.5692   -2.5407   60.8783 C.ar    1  ZINC000822206030   -0.1000
     13 C13       -14.7172   -1.9634   62.1232 C.ar    1  ZINC000822206030   -0.0800
     14 C14       -14.7272   -0.5761   62.2482 C.ar    1  ZINC000822206030   -0.0100
     15 C15       -14.8857    0.0504   63.5848 C.2     1  ZINC000822206030    0.2200
     16 N16       -15.0590   -0.5750   64.7320 N.2     1  ZINC000822206030   -0.2900
     17 N17       -15.1541    0.3170   65.6572 N.pl3   1  ZINC000822206030   -0.2300
     18 N18       -15.0466    1.4876   65.1326 N.2     1  ZINC000822206030   -0.0500
     19 N19       -14.8747    1.3623   63.8604 N.2     1  ZINC000822206030   -0.2700
     20 C20       -14.5876    0.2214   61.1147 C.ar    1  ZINC000822206030   -0.0800
     21 C21       -14.4349   -0.3662   59.8751 C.ar    1  ZINC000822206030   -0.0900
     22 C22       -12.9344   -1.1840   56.7485 C.2     1  ZINC000822206030    0.5500
     23 O23       -13.9645   -0.7831   56.2493 O.2     1  ZINC000822206030   -0.5000
     24 C24       -11.6061   -0.7810   56.1619 C.3     1  ZINC000822206030   -0.1900
     25 H25       -10.7659   -0.7813   56.8563 H       1  ZINC000822206030    0.1200
     26 C26       -11.6130    0.2824   55.0619 C.3     1  ZINC000822206030   -0.1400
     27 C27       -11.3242   -1.1794   54.7118 C.3     1  ZINC000822206030   -0.0900
     28 H28       -10.2985   -1.4416   54.4522 H       1  ZINC000822206030    0.1100
     29 C29       -12.4123   -1.9560   53.9676 C.3     1  ZINC000822206030   -0.1100
     30 C30       -12.1629   -2.2858   52.4946 C.3     1  ZINC000822206030   -0.2000
     31 C31       -12.0938   -3.3926   53.5487 C.3     1  ZINC000822206030   -0.1200
     32 H32       -11.6727   -4.3502   56.0637 H       1  ZINC000822206030    0.0900
     33 H33       -11.8638   -5.6163   57.3000 H       1  ZINC000822206030    0.0700
     34 H34       -13.1009   -4.3484   57.1261 H       1  ZINC000822206030    0.0700
     35 H35        -9.7336   -5.1342   58.3631 H       1  ZINC000822206030    0.1400
     36 H36        -9.4027   -1.5141   60.6012 H       1  ZINC000822206030    0.1400
     37 H37       -11.4932   -0.6955   59.5924 H       1  ZINC000822206030    0.1400
     38 H38       -15.0726   -2.0458   57.7431 H       1  ZINC000822206030    0.1000
     39 H39       -14.3091   -3.4648   58.4993 H       1  ZINC000822206030    0.0900
     40 H40       -14.5616   -3.6162   60.7803 H       1  ZINC000822206030    0.1300
     41 H41       -14.8254   -2.5862   62.9989 H       1  ZINC000822206030    0.1400
     42 H42       -15.2863    0.1349   66.6007 H       1  ZINC000822206030    0.4800
     43 H43       -14.5950    1.2975   61.2060 H       1  ZINC000822206030    0.1300
     44 H44       -14.3264    0.2511   58.9955 H       1  ZINC000822206030    0.1400
     45 H45       -12.5783    0.6906   54.7626 H       1  ZINC000822206030    0.1000
     46 H46       -10.7772    0.9816   55.0325 H       1  ZINC000822206030    0.1000
     47 H47       -13.4365   -1.7346   54.2678 H       1  ZINC000822206030    0.1000
     48 H48       -13.0231   -2.2814   51.8252 H       1  ZINC000822206030    0.0900
     49 H49       -11.2237   -1.9496   52.0556 H       1  ZINC000822206030    0.0900
     50 H50       -11.1090   -3.7845   53.8031 H       1  ZINC000822206030    0.0800
     51 H51       -12.9085   -4.1163   53.5727 H       1  ZINC000822206030    0.0900
@<TRIPOS>BOND
     1     1     2    1
     2     1    32    1
     3     1    33    1
     4     1    34    1
     5     2     8   ar
     6     2     3   ar
     7     3     4   ar
     8     3    35    1
     9     4     5    1
    10     4     6   ar
    11     6     7   ar
    12     6    36    1
    13     7     8   ar
    14     7    37    1
    15     8     9    1
    16     9    10    1
    17     9    22   am
    18    10    11    1
    19    10    38    1
    20    10    39    1
    21    11    21   ar
    22    11    12   ar
    23    12    13   ar
    24    12    40    1
    25    13    14   ar
    26    13    41    1
    27    14    15    1
    28    14    20   ar
    29    15    19    1
    30    15    16    2
    31    16    17    1
    32    17    18    1
    33    17    42    1
    34    18    19    2
    35    20    21   ar
    36    20    43    1
    37    21    44    1
    38    22    23    2
    39    22    24    1
    40    24    25    1
    41    24    27    1
    42    24    26    1
    43    26    27    1
    44    26    45    1
    45    26    46    1
    46    27    28    1
    47    27    29    1
    48    29    31    1
    49    29    30    1
    50    29    47    1
    51    30    31    1
    52    30    48    1
    53    30    49    1
    54    31    50    1
    55    31    51    1
@<TRIPOS>SUBSTRUCTURE
     1 ZINC000822206030        1 TEMP              0 ****  ****    0 ROOT


##########                                Name:    ZINC001345266033
##########                DOCK_Rotatable_Bonds:                   4
##########                         Heavy_Atoms:                  29
##########                    Molecular_Weight:               389.5
##########                DOCK_Rotatable_Bonds:                   4
##########                       Formal_Charge:          -0.0100001
##########                     HBond_Acceptors:                   6
##########                        HBond_Donors:                   0
##########                         Heavy_Atoms:                  29
##########                          Grid_Score:          -31.138111
##########                     Grid_vdw_energy:          -31.003927
##########                      Grid_es_energy:           -0.134185
##########           Internal_energy_repulsive:           26.992292

@<TRIPOS>MOLECULE
ZINC001345266033
 56 61 1 0 0
SMALL
USER_CHARGES


@<TRIPOS>ATOM
      1 C1        -14.2103   -0.8123   63.2401 C.ar    1  ZINC001345266033   -0.1100
      2 C2        -14.3176   -1.6951   62.1685 C.ar    1  ZINC001345266033   -0.0900
      3 C3        -13.2758   -1.8835   61.3075 C.ar    1  ZINC001345266033   -0.1100
      4 C4        -12.0858   -1.1794   61.5056 C.ar    1  ZINC001345266033    0.0000
      5 C5        -11.9722   -0.2786   62.5956 C.ar    1  ZINC001345266033   -0.1100
      6 C6        -13.0639   -0.1100   63.4615 C.ar    1  ZINC001345266033   -0.0900
      7 C7        -10.7649    0.4168   62.7712 C.ar    1  ZINC001345266033    0.1700
      8 N8         -9.7602    0.2406   61.9473 N.ar    1  ZINC001345266033   -0.4800
      9 C9         -9.7958   -0.5816   60.9119 C.ar    1  ZINC001345266033    0.0900
     10 C10       -10.9293   -1.3306   60.6233 C.ar    1  ZINC001345266033   -0.0700
     11 C11       -10.9652   -2.2467   59.4676 C.2     1  ZINC001345266033    0.2300
     12 N12       -10.2827   -3.3615   59.3328 N.2     1  ZINC001345266033   -0.2600
     13 N13       -10.5564   -3.9084   58.2025 N.2     1  ZINC001345266033   -0.3000
     14 C14       -11.4295   -3.1773   57.5467 C.2     1  ZINC001345266033    0.3600
     15 N15       -11.9562   -3.4527   56.2972 N.3     1  ZINC001345266033   -0.4600
     16 C16       -13.4198   -3.5509   56.3533 C.3     1  ZINC001345266033    0.0600
     17 C17       -13.9582   -4.0703   55.0187 C.3     1  ZINC001345266033   -0.1100
     18 C18       -13.6042   -3.0726   53.9095 C.3     1  ZINC001345266033   -0.0800
     19 C19       -12.0917   -2.8285   53.9393 C.3     1  ZINC001345266033   -0.1300
     20 C20       -11.2161   -3.6793   53.0207 C.3     1  ZINC001345266033   -0.1600
     21 C21       -11.4476   -2.1998   52.7050 C.3     1  ZINC001345266033   -0.1700
     22 C22       -11.5281   -2.4487   55.3118 C.3     1  ZINC001345266033    0.1100
     23 N23       -11.7244   -2.0987   58.3292 N.pl3   1  ZINC001345266033   -0.4600
     24 C24       -12.6500   -1.0064   58.0184 C.3     1  ZINC001345266033    0.1000
     25 C25       -11.9373    0.3346   58.2053 C.3     1  ZINC001345266033   -0.1400
     26 H26       -11.6287    0.4602   59.2431 H       1  ZINC001345266033    0.1000
     27 C27       -12.8557    1.5017   57.7681 C.3     1  ZINC001345266033   -0.1500
     28 C28       -11.8627    2.4389   57.0344 C.3     1  ZINC001345266033    0.0500
     29 O29       -10.9741    1.5242   56.3574 O.3     1  ZINC001345266033   -0.3700
     30 C30       -10.7207    0.4345   57.2649 C.3     1  ZINC001345266033    0.0300
     31 H31       -15.0515   -0.6786   63.9041 H       1  ZINC001345266033    0.1300
     32 H32       -15.2384   -2.2387   62.0168 H       1  ZINC001345266033    0.1300
     33 H33       -13.3704   -2.5714   60.4803 H       1  ZINC001345266033    0.1600
     34 H34       -12.9959    0.5716   64.2965 H       1  ZINC001345266033    0.1400
     35 H35       -10.6626    1.1064   63.5961 H       1  ZINC001345266033    0.1700
     36 H36        -8.9262   -0.6721   60.2778 H       1  ZINC001345266033    0.1700
     37 H37       -13.7063   -4.2364   57.1508 H       1  ZINC001345266033    0.0700
     38 H38       -13.8412   -2.5662   56.5551 H       1  ZINC001345266033    0.0500
     39 H39       -13.5077   -5.0375   54.7958 H       1  ZINC001345266033    0.0800
     40 H40       -15.0412   -4.1776   55.0799 H       1  ZINC001345266033    0.0800
     41 H41       -13.8895   -3.4847   52.9415 H       1  ZINC001345266033    0.0700
     42 H42       -14.1301   -2.1334   54.0803 H       1  ZINC001345266033    0.0700
     43 H43       -10.2314   -3.9674   53.3888 H       1  ZINC001345266033    0.0900
     44 H44       -11.7150   -4.4131   52.3876 H       1  ZINC001345266033    0.0900
     45 H45       -12.0986   -1.9602   51.8643 H       1  ZINC001345266033    0.1000
     46 H46       -10.6151   -1.5146   52.8655 H       1  ZINC001345266033    0.1000
     47 H47       -11.9049   -1.4681   55.6025 H       1  ZINC001345266033    0.0600
     48 H48       -10.4393   -2.4241   55.2651 H       1  ZINC001345266033    0.0800
     49 H49       -12.9866   -1.0980   56.9857 H       1  ZINC001345266033    0.1100
     50 H50       -13.5096   -1.0572   58.6866 H       1  ZINC001345266033    0.1100
     51 H51       -13.6336    1.1515   57.0897 H       1  ZINC001345266033    0.0800
     52 H52       -13.2919    1.9990   58.6345 H       1  ZINC001345266033    0.0900
     53 H53       -12.3880    3.0670   56.3149 H       1  ZINC001345266033    0.1000
     54 H54       -11.3123    3.0503   57.7494 H       1  ZINC001345266033    0.0600
     55 H55        -9.8180    0.6351   57.8419 H       1  ZINC001345266033    0.0600
     56 H56       -10.6071   -0.4944   56.7061 H       1  ZINC001345266033    0.0900
@<TRIPOS>BOND
     1     1     6   ar
     2     1     2   ar
     3     1    31    1
     4     2     3   ar
     5     2    32    1
     6     3     4   ar
     7     3    33    1
     8     4    10   ar
     9     4     5   ar
    10     5     6   ar
    11     5     7   ar
    12     6    34    1
    13     7     8   ar
    14     7    35    1
    15     8     9   ar
    16     9    10   ar
    17     9    36    1
    18    10    11    1
    19    11    23    1
    20    11    12    2
    21    12    13    1
    22    13    14    2
    23    14    15    1
    24    14    23    1
    25    15    22    1
    26    15    16    1
    27    16    17    1
    28    16    37    1
    29    16    38    1
    30    17    18    1
    31    17    39    1
    32    17    40    1
    33    18    19    1
    34    18    41    1
    35    18    42    1
    36    19    21    1
    37    19    20    1
    38    19    22    1
    39    20    21    1
    40    20    43    1
    41    20    44    1
    42    21    45    1
    43    21    46    1
    44    22    47    1
    45    22    48    1
    46    23    24    1
    47    24    25    1
    48    24    49    1
    49    24    50    1
    50    25    26    1
    51    25    30    1
    52    25    27    1
    53    27    28    1
    54    27    51    1
    55    27    52    1
    56    28    29    1
    57    28    53    1
    58    28    54    1
    59    29    30    1
    60    30    55    1
    61    30    56    1
@<TRIPOS>SUBSTRUCTURE
     1 ZINC001345266033        1 TEMP              0 ****  ****    0 ROOT


##########                                Name:    ZINC001110536231
##########                DOCK_Rotatable_Bonds:                   8
##########                         Heavy_Atoms:                  24
##########                    Molecular_Weight:             329.442
##########                DOCK_Rotatable_Bonds:                   8
##########                       Formal_Charge:          -0.0400001
##########                     HBond_Acceptors:                   5
##########                        HBond_Donors:                   1
##########                         Heavy_Atoms:                  24
##########                          Grid_Score:          -31.103132
##########                     Grid_vdw_energy:          -31.367855
##########                      Grid_es_energy:            0.264722
##########           Internal_energy_repulsive:           27.702366

@<TRIPOS>MOLECULE
ZINC001110536231
 51 53 1 0 0
SMALL
USER_CHARGES


@<TRIPOS>ATOM
      1 C1        -10.1860    1.3679   55.0541 C.3     1  ZINC001110536231   -0.1300
      2 C2        -11.0587    0.4466   54.1993 C.3     1  ZINC001110536231   -0.1000
      3 C3        -10.1785   -0.4238   53.3397 C.2     1  ZINC001110536231   -0.0200
      4 C4         -8.9268    0.1461   52.7235 C.3     1  ZINC001110536231   -0.1300
      5 C5        -10.5063   -1.6947   53.1249 C.2     1  ZINC001110536231   -0.2400
      6 C6        -11.7281   -2.2508   53.7264 C.2     1  ZINC001110536231    0.5400
      7 O7        -12.7741   -2.2319   53.1064 O.2     1  ZINC001110536231   -0.5300
      8 N8        -11.6881   -2.7814   54.9647 N.am    1  ZINC001110536231   -0.7300
      9 C9        -12.9045   -3.3369   55.5631 C.3     1  ZINC001110536231    0.1100
     10 H10       -13.5154   -3.8258   54.8042 H       1  ZINC001110536231    0.1000
     11 C11       -13.7126   -2.2296   56.2831 C.3     1  ZINC001110536231   -0.1600
     12 C12       -13.7359   -2.7026   57.7678 C.3     1  ZINC001110536231    0.0500
     13 H13       -13.9323   -1.9253   58.5064 H       1  ZINC001110536231    0.1200
     14 C14       -14.7146   -3.9153   57.7905 C.3     1  ZINC001110536231   -0.1200
     15 C15       -13.9233   -5.0325   57.0671 C.3     1  ZINC001110536231   -0.1100
     16 C16       -12.5475   -4.3342   56.7063 C.3     1  ZINC001110536231    0.0400
     17 H17       -11.7123   -5.0090   56.5184 H       1  ZINC001110536231    0.1200
     18 N18       -12.3978   -3.3868   57.8734 N.3     1  ZINC001110536231   -0.4900
     19 C19       -11.2909   -2.4472   57.6501 C.3     1  ZINC001110536231    0.0600
     20 C20       -10.5594   -2.2154   58.9472 C.ar    1  ZINC001110536231    0.0100
     21 C21        -9.5465   -3.0725   59.3538 C.ar    1  ZINC001110536231   -0.2100
     22 C22        -8.8961   -2.8312   60.5479 C.ar    1  ZINC001110536231    0.1400
     23 N23        -9.2264   -1.7998   61.3014 N.ar    1  ZINC001110536231   -0.5400
     24 C24       -10.1861   -0.9610   60.9478 C.ar    1  ZINC001110536231    0.3200
     25 O25       -10.4929    0.0870   61.7531 O.3     1  ZINC001110536231   -0.3100
     26 C26        -9.6252    0.3284   62.8625 C.3     1  ZINC001110536231    0.0400
     27 C27       -10.8789   -1.1395   59.7575 C.ar    1  ZINC001110536231   -0.1700
     28 H28       -10.8226    1.9973   55.6759 H       1  ZINC001110536231    0.0500
     29 H29        -9.5372    0.7662   55.6905 H       1  ZINC001110536231    0.0700
     30 H30        -9.5766    1.9964   54.4048 H       1  ZINC001110536231    0.0400
     31 H31       -11.6681   -0.1820   54.8487 H       1  ZINC001110536231    0.0900
     32 H32       -11.7075    1.0482   53.5629 H       1  ZINC001110536231    0.0600
     33 H33        -8.0889    0.0046   53.4062 H       1  ZINC001110536231    0.0800
     34 H34        -8.7196   -0.3649   51.7832 H       1  ZINC001110536231    0.0700
     35 H35        -9.0665    1.2106   52.5354 H       1  ZINC001110536231    0.0700
     36 H36        -9.8754   -2.3183   52.5088 H       1  ZINC001110536231    0.1200
     37 H37       -10.8541   -2.7955   55.4597 H       1  ZINC001110536231    0.4000
     38 H38       -13.2081   -1.2674   56.1947 H       1  ZINC001110536231    0.0700
     39 H39       -14.7248   -2.1715   55.8829 H       1  ZINC001110536231    0.0800
     40 H40       -14.9401   -4.2073   58.8162 H       1  ZINC001110536231    0.0700
     41 H41       -15.6298   -3.6799   57.2474 H       1  ZINC001110536231    0.0700
     42 H42       -13.7568   -5.8782   57.7342 H       1  ZINC001110536231    0.0800
     43 H43       -14.4465   -5.3509   56.1654 H       1  ZINC001110536231    0.0700
     44 H44       -10.6030   -2.8642   56.9146 H       1  ZINC001110536231    0.0900
     45 H45       -11.6865   -1.5005   57.2820 H       1  ZINC001110536231    0.0700
     46 H46        -9.2700   -3.9193   58.7432 H       1  ZINC001110536231    0.1300
     47 H47        -8.1073   -3.4952   60.8690 H       1  ZINC001110536231    0.1600
     48 H48        -9.9833    1.1923   63.4226 H       1  ZINC001110536231    0.1000
     49 H49        -9.6140   -0.5467   63.5122 H       1  ZINC001110536231    0.0600
     50 H50        -8.6163    0.5239   62.4990 H       1  ZINC001110536231    0.0600
     51 H51       -11.6617   -0.4525   59.4716 H       1  ZINC001110536231    0.1400
@<TRIPOS>BOND
     1     1     2    1
     2     1    28    1
     3     1    29    1
     4     1    30    1
     5     2     3    1
     6     2    31    1
     7     2    32    1
     8     3     4    1
     9     3     5    2
    10     4    33    1
    11     4    34    1
    12     4    35    1
    13     5     6    1
    14     5    36    1
    15     6     7    2
    16     6     8   am
    17     8     9    1
    18     8    37    1
    19     9    10    1
    20     9    16    1
    21     9    11    1
    22    11    12    1
    23    11    38    1
    24    11    39    1
    25    12    13    1
    26    12    18    1
    27    12    14    1
    28    14    15    1
    29    14    40    1
    30    14    41    1
    31    15    16    1
    32    15    42    1
    33    15    43    1
    34    16    17    1
    35    16    18    1
    36    18    19    1
    37    19    20    1
    38    19    44    1
    39    19    45    1
    40    20    27   ar
    41    20    21   ar
    42    21    22   ar
    43    21    46    1
    44    22    23   ar
    45    22    47    1
    46    23    24   ar
    47    24    25    1
    48    24    27   ar
    49    25    26    1
    50    26    48    1
    51    26    49    1
    52    26    50    1
    53    27    51    1
@<TRIPOS>SUBSTRUCTURE
     1 ZINC001110536231        1 TEMP              0 ****  ****    0 ROOT


##########                                Name:    ZINC000817655807
##########                DOCK_Rotatable_Bonds:                   3
##########                         Heavy_Atoms:                  24
##########                    Molecular_Weight:             352.774
##########                DOCK_Rotatable_Bonds:                   3
##########                       Formal_Charge:         3.35276e-07
##########                     HBond_Acceptors:                   8
##########                        HBond_Donors:                   0
##########                         Heavy_Atoms:                  24
##########                          Grid_Score:          -31.101254
##########                     Grid_vdw_energy:          -29.429676
##########                      Grid_es_energy:           -1.671577
##########           Internal_energy_repulsive:            2.656097

@<TRIPOS>MOLECULE
ZINC000817655807
 41 44 1 0 0
SMALL
USER_CHARGES


@<TRIPOS>ATOM
      1 C1        -12.0355   -3.5225   53.7938 C.3     1  ZINC000817655807    0.1100
      2 N2        -11.9501   -2.1164   54.1962 N.am    1  ZINC000817655807   -0.6400
      3 C3        -11.0215   -1.1187   53.6350 C.3     1  ZINC000817655807    0.1000
      4 C4        -11.3654    0.1568   54.4096 C.3     1  ZINC000817655807    0.0500
      5 C5        -10.1806    0.8988   55.0283 C.3     1  ZINC000817655807    0.1200
      6 N6        -10.1864    1.7125   53.7946 N.am    1  ZINC000817655807   -0.6500
      7 C7         -9.2605    2.4436   53.1429 C.2     1  ZINC000817655807    0.5500
      8 O8         -9.5566    3.0251   52.1206 O.2     1  ZINC000817655807   -0.5100
      9 C9         -7.8574    2.5385   53.6845 C.3     1  ZINC000817655807   -0.0900
     10 C10        -6.8727    2.2361   52.5844 C.ar    1  ZINC000817655807   -0.0600
     11 C11        -6.9152    1.0158   51.9369 C.ar    1  ZINC000817655807   -0.0900
     12 C12        -6.0115    0.7340   50.9282 C.ar    1  ZINC000817655807   -0.0300
     13 Cl13       -6.0673   -0.8000   50.1174 Cl      1  ZINC000817655807   -0.0500
     14 C14        -5.0607    1.6766   50.5637 C.ar    1  ZINC000817655807    0.0600
     15 O15        -4.1728    1.3824   49.5748 O.3     1  ZINC000817655807   -0.2900
     16 C16        -3.4774    2.4863   48.9848 C.3     1  ZINC000817655807    0.0200
     17 C17        -2.9701    3.3935   50.1139 C.3     1  ZINC000817655807    0.0200
     18 O18        -4.1002    3.8456   50.8678 O.3     1  ZINC000817655807   -0.3000
     19 C19        -5.0213    2.9048   51.2128 C.ar    1  ZINC000817655807    0.0600
     20 C20        -5.9325    3.1820   52.2210 C.ar    1  ZINC000817655807   -0.0900
     21 C21       -11.6125    1.4039   53.5605 C.3     1  ZINC000817655807    0.1100
     22 O22       -12.4275   -0.2254   55.3139 O.3     1  ZINC000817655807   -0.3000
     23 C23       -12.7081   -1.5246   55.1318 C.2     1  ZINC000817655807    0.6400
     24 O24       -13.5648   -2.1130   55.7615 O.2     1  ZINC000817655807   -0.5100
     25 H25       -12.8133   -4.0197   54.3734 H       1  ZINC000817655807    0.0900
     26 H26       -12.2785   -3.5827   52.7329 H       1  ZINC000817655807    0.0700
     27 H27       -11.0784   -4.0113   53.9756 H       1  ZINC000817655807    0.0700
     28 H28        -9.9872   -1.4114   53.8160 H       1  ZINC000817655807    0.1000
     29 H29       -11.2026   -0.9817   52.5690 H       1  ZINC000817655807    0.1000
     30 H30       -10.4339    1.4606   55.9274 H       1  ZINC000817655807    0.1100
     31 H31        -9.2885    0.2836   55.1458 H       1  ZINC000817655807    0.1000
     32 H32        -7.6814    3.5454   54.0630 H       1  ZINC000817655807    0.1100
     33 H33        -7.7308    1.8190   54.4934 H       1  ZINC000817655807    0.1100
     34 H34        -7.6547    0.2811   52.2191 H       1  ZINC000817655807    0.1400
     35 H35        -2.6335    2.1193   48.4009 H       1  ZINC000817655807    0.1300
     36 H36        -4.1555    3.0458   48.3404 H       1  ZINC000817655807    0.0800
     37 H37        -2.2967    2.8324   50.7619 H       1  ZINC000817655807    0.0800
     38 H38        -2.4450    4.2494   49.6899 H       1  ZINC000817655807    0.1300
     39 H39        -5.9049    4.1366   52.7254 H       1  ZINC000817655807    0.1400
     40 H40       -11.8510    1.1873   52.5192 H       1  ZINC000817655807    0.1000
     41 H41       -12.2982    2.1182   54.0164 H       1  ZINC000817655807    0.1100
@<TRIPOS>BOND
     1     1     2    1
     2     1    25    1
     3     1    26    1
     4     1    27    1
     5     2    23   am
     6     2     3    1
     7     3     4    1
     8     3    28    1
     9     3    29    1
    10     4    21    1
    11     4     5    1
    12     4    22    1
    13     5     6    1
    14     5    30    1
    15     5    31    1
    16     6     7   am
    17     6    21    1
    18     7     8    2
    19     7     9    1
    20     9    10    1
    21     9    32    1
    22     9    33    1
    23    10    20   ar
    24    10    11   ar
    25    11    12   ar
    26    11    34    1
    27    12    13    1
    28    12    14   ar
    29    14    19   ar
    30    14    15    1
    31    15    16    1
    32    16    17    1
    33    16    35    1
    34    16    36    1
    35    17    18    1
    36    17    37    1
    37    17    38    1
    38    18    19    1
    39    19    20   ar
    40    20    39    1
    41    21    40    1
    42    21    41    1
    43    22    23    1
    44    23    24    2
@<TRIPOS>SUBSTRUCTURE
     1 ZINC000817655807        1 TEMP              0 ****  ****    0 ROOT


##########                                Name:    ZINC000274267583
##########                DOCK_Rotatable_Bonds:                   5
##########                         Heavy_Atoms:                  24
##########                    Molecular_Weight:             349.407
##########                DOCK_Rotatable_Bonds:                   5
##########                       Formal_Charge:           0.0300001
##########                     HBond_Acceptors:                   7
##########                        HBond_Donors:                   1
##########                         Heavy_Atoms:                  24
##########                          Grid_Score:          -31.100849
##########                     Grid_vdw_energy:          -32.512665
##########                      Grid_es_energy:            1.411817
##########           Internal_energy_repulsive:           16.053289

@<TRIPOS>MOLECULE
ZINC000274267583
 43 45 1 0 0
SMALL
USER_CHARGES


@<TRIPOS>ATOM
      1 C1        -14.3869   -5.2968   55.3213 C.3     1  ZINC000274267583    0.0200
      2 O2        -13.8646   -3.9699   55.4139 O.3     1  ZINC000274267583   -0.3100
      3 C3        -12.8704   -3.7599   56.3163 C.ar    1  ZINC000274267583    0.1900
      4 C4        -12.4017   -2.4747   56.5472 C.ar    1  ZINC000274267583   -0.2300
      5 C5        -11.3913   -2.2638   57.4654 C.ar    1  ZINC000274267583    0.0300
      6 C6        -10.8469   -3.3322   58.1537 C.ar    1  ZINC000274267583   -0.7200
      7 S7         -9.5579   -3.0599   59.3236 S.o2    1  ZINC000274267583    2.7000
      8 O8         -8.9634   -4.3273   59.5681 O.2     1  ZINC000274267583   -0.9500
      9 O9         -8.8253   -1.9345   58.8589 O.2     1  ZINC000274267583   -0.9500
     10 N10       -10.2742   -2.5978   60.7434 N.am    1  ZINC000274267583   -1.1100
     11 C11       -11.1012   -1.3893   60.7873 C.3     1  ZINC000274267583    0.2100
     12 H12       -10.8841   -0.7697   59.9173 H       1  ZINC000274267583    0.1000
     13 C13       -12.5801   -1.7837   60.7756 C.3     1  ZINC000274267583   -0.1800
     14 C14       -13.4129   -0.5414   61.1169 C.3     1  ZINC000274267583    0.0600
     15 O15       -13.1061   -0.1472   62.4549 O.3     1  ZINC000274267583   -0.3100
     16 C16       -11.7958   -0.0358   62.7995 C.ar    1  ZINC000274267583    0.1100
     17 C17       -11.4712    0.6822   63.9456 C.ar    1  ZINC000274267583   -0.1100
     18 C18       -10.1536    0.8154   64.3335 C.ar    1  ZINC000274267583   -0.1600
     19 C19        -9.1482    0.2308   63.5783 C.ar    1  ZINC000274267583    0.0900
     20 O20        -7.8489    0.3575   63.9590 O.3     1  ZINC000274267583   -0.3200
     21 C21        -7.5265    1.4601   64.8090 C.3     1  ZINC000274267583    0.0300
     22 C22        -9.4701   -0.4830   62.4350 C.ar    1  ZINC000274267583   -0.1000
     23 C23       -10.7924   -0.6156   62.0440 C.ar    1  ZINC000274267583   -0.1400
     24 C24       -11.3126   -4.6140   57.9257 C.ar    1  ZINC000274267583    0.0200
     25 C25       -12.3264   -4.8296   57.0123 C.ar    1  ZINC000274267583   -0.1700
     26 H26       -13.5876   -5.9832   55.0416 H       1  ZINC000274267583    0.0600
     27 H27       -14.7993   -5.5931   56.2857 H       1  ZINC000274267583    0.0600
     28 H28       -15.1721   -5.3263   54.5658 H       1  ZINC000274267583    0.1100
     29 H29       -12.8261   -1.6399   56.0093 H       1  ZINC000274267583    0.1400
     30 H30       -11.0261   -1.2635   57.6454 H       1  ZINC000274267583    0.1400
     31 H31       -10.1460   -3.1272   61.5461 H       1  ZINC000274267583    0.4200
     32 H32       -12.8548   -2.1498   59.7864 H       1  ZINC000274267583    0.1000
     33 H33       -12.7588   -2.5612   61.5184 H       1  ZINC000274267583    0.0900
     34 H34       -13.1642    0.2674   60.4297 H       1  ZINC000274267583    0.0700
     35 H35       -14.4740   -0.7778   61.0379 H       1  ZINC000274267583    0.1200
     36 H36       -12.2537    1.1378   64.5342 H       1  ZINC000274267583    0.1400
     37 H37        -9.9059    1.3744   65.2237 H       1  ZINC000274267583    0.1400
     38 H38        -7.7761    2.3933   64.3041 H       1  ZINC000274267583    0.0600
     39 H39        -8.0969    1.3841   65.7348 H       1  ZINC000274267583    0.0600
     40 H40        -6.4607    1.4439   65.0366 H       1  ZINC000274267583    0.1000
     41 H41        -8.6870   -0.9380   61.8468 H       1  ZINC000274267583    0.1300
     42 H42       -10.8860   -5.4470   58.4648 H       1  ZINC000274267583    0.1500
     43 H43       -12.6898   -5.8309   56.8347 H       1  ZINC000274267583    0.1400
@<TRIPOS>BOND
     1     1     2    1
     2     1    26    1
     3     1    27    1
     4     1    28    1
     5     2     3    1
     6     3    25   ar
     7     3     4   ar
     8     4     5   ar
     9     4    29    1
    10     5     6   ar
    11     5    30    1
    12     6     7    1
    13     6    24   ar
    14     7     8    2
    15     7     9    2
    16     7    10   am
    17    10    11    1
    18    10    31    1
    19    11    12    1
    20    11    23    1
    21    11    13    1
    22    13    14    1
    23    13    32    1
    24    13    33    1
    25    14    15    1
    26    14    34    1
    27    14    35    1
    28    15    16    1
    29    16    23   ar
    30    16    17   ar
    31    17    18   ar
    32    17    36    1
    33    18    19   ar
    34    18    37    1
    35    19    20    1
    36    19    22   ar
    37    20    21    1
    38    21    38    1
    39    21    39    1
    40    21    40    1
    41    22    23   ar
    42    22    41    1
    43    24    25   ar
    44    24    42    1
    45    25    43    1
@<TRIPOS>SUBSTRUCTURE
     1 ZINC000274267583        1 TEMP              0 ****  ****    0 ROOT


##########                                Name:    ZINC001074839487
##########                DOCK_Rotatable_Bonds:                   7
##########                         Heavy_Atoms:                  25
##########                    Molecular_Weight:             344.454
##########                DOCK_Rotatable_Bonds:                   7
##########                       Formal_Charge:          -0.0500005
##########                     HBond_Acceptors:                   5
##########                        HBond_Donors:                   1
##########                         Heavy_Atoms:                  25
##########                          Grid_Score:          -31.094929
##########                     Grid_vdw_energy:          -31.723907
##########                      Grid_es_energy:            0.628979
##########           Internal_energy_repulsive:           91.475266

@<TRIPOS>MOLECULE
ZINC001074839487
 53 55 1 0 0
SMALL
USER_CHARGES


@<TRIPOS>ATOM
      1 C1        -12.5499   -3.6322   53.1791 C.3     1  ZINC001074839487   -0.1500
      2 C2        -11.0687   -3.3262   52.9484 C.3     1  ZINC001074839487   -0.1300
      3 C3        -10.8016   -1.8483   53.2405 C.3     1  ZINC001074839487   -0.1100
      4 C4        -11.1164   -1.5535   54.7085 C.3     1  ZINC001074839487   -0.1400
      5 C5        -10.4420   -0.2699   55.1189 C.2     1  ZINC001074839487    0.5100
      6 O6        -10.0781   -0.1157   56.2655 O.2     1  ZINC001074839487   -0.5400
      7 N7        -10.2432    0.7069   54.2117 N.am    1  ZINC001074839487   -0.7300
      8 C8         -9.5892    1.9554   54.6111 C.3     1  ZINC001074839487    0.1400
      9 H9         -9.7759    2.1409   55.6689 H       1  ZINC001074839487    0.0900
     10 C10        -8.0820    1.8408   54.3717 C.3     1  ZINC001074839487   -0.1500
     11 C11        -7.8252    1.5462   52.8905 C.3     1  ZINC001074839487    0.0700
     12 N12        -8.4880    2.5780   52.0813 N.am    1  ZINC001074839487   -0.6000
     13 C13        -7.7963    3.2776   51.1601 C.2     1  ZINC001074839487    0.5600
     14 O14        -8.3561    4.1285   50.4968 O.2     1  ZINC001074839487   -0.5200
     15 C15        -6.3567    3.0099   50.9562 C.ar    1  ZINC001074839487   -0.1300
     16 C16        -5.9491    1.9445   50.1521 C.ar    1  ZINC001074839487   -0.1000
     17 C17        -4.6036    1.6990   49.9652 C.ar    1  ZINC001074839487   -0.1000
     18 C18        -3.6614    2.5056   50.5723 C.ar    1  ZINC001074839487   -0.1100
     19 C19        -2.1501    2.4958   50.5629 C.3     1  ZINC001074839487    0.0900
     20 O20        -1.7421    3.2917   51.6905 O.3     1  ZINC001074839487   -0.3600
     21 C21        -2.8069    4.2413   51.8805 C.3     1  ZINC001074839487    0.0900
     22 C22        -4.0603    3.5667   51.3732 C.ar    1  ZINC001074839487   -0.1400
     23 C23        -5.3990    3.8256   51.5629 C.ar    1  ZINC001074839487   -0.0400
     24 C24        -9.9189    2.8331   52.2957 C.3     1  ZINC001074839487    0.1500
     25 H25       -10.4952    1.9585   51.9938 H       1  ZINC001074839487    0.0700
     26 C26       -10.3529    4.0465   51.4711 C.3     1  ZINC001074839487   -0.1400
     27 C27       -10.1523    3.1132   53.7836 C.3     1  ZINC001074839487   -0.1400
     28 H28       -12.8088   -3.4141   54.2152 H       1  ZINC001074839487    0.0500
     29 H29       -12.7401   -4.6850   52.9709 H       1  ZINC001074839487    0.0500
     30 H30       -13.1560   -3.0153   52.5156 H       1  ZINC001074839487    0.0500
     31 H31       -10.4625   -3.9430   53.6119 H       1  ZINC001074839487    0.0600
     32 H32       -10.8097   -3.5443   51.9123 H       1  ZINC001074839487    0.0600
     33 H33        -9.7542   -1.6219   53.0410 H       1  ZINC001074839487    0.0700
     34 H34       -11.4346   -1.2317   52.6023 H       1  ZINC001074839487    0.0700
     35 H35       -12.1943   -1.4546   54.8361 H       1  ZINC001074839487    0.0900
     36 H36       -10.7504   -2.3709   55.3297 H       1  ZINC001074839487    0.0900
     37 H37       -10.5333    0.5831   53.2944 H       1  ZINC001074839487    0.4000
     38 H38        -7.5979    2.7782   54.6454 H       1  ZINC001074839487    0.0800
     39 H39        -7.6778    1.0311   54.9791 H       1  ZINC001074839487    0.0800
     40 H40        -6.7530    1.5616   52.6954 H       1  ZINC001074839487    0.1200
     41 H41        -8.2308    0.5666   52.6371 H       1  ZINC001074839487    0.0700
     42 H42        -6.6853    1.3133   49.6765 H       1  ZINC001074839487    0.1500
     43 H43        -4.2873    0.8750   49.3428 H       1  ZINC001074839487    0.1400
     44 H44        -1.7805    1.4759   50.6697 H       1  ZINC001074839487    0.1000
     45 H45        -1.7774    2.9360   49.6380 H       1  ZINC001074839487    0.0800
     46 H46        -2.9116    4.4815   52.9385 H       1  ZINC001074839487    0.1000
     47 H47        -2.6093    5.1468   51.3068 H       1  ZINC001074839487    0.0800
     48 H48        -5.7079    4.6545   52.1825 H       1  ZINC001074839487    0.1400
     49 H49       -10.2867    3.8070   50.4097 H       1  ZINC001074839487    0.0800
     50 H50       -11.3813    4.3070   51.7214 H       1  ZINC001074839487    0.0500
     51 H51        -9.6997    4.8901   51.6945 H       1  ZINC001074839487    0.0700
     52 H52       -11.2214    3.2092   53.9725 H       1  ZINC001074839487    0.0900
     53 H53        -9.6485    4.0386   54.0629 H       1  ZINC001074839487    0.0900
@<TRIPOS>BOND
     1     1     2    1
     2     1    28    1
     3     1    29    1
     4     1    30    1
     5     2     3    1
     6     2    31    1
     7     2    32    1
     8     3     4    1
     9     3    33    1
    10     3    34    1
    11     4     5    1
    12     4    35    1
    13     4    36    1
    14     5     6    2
    15     5     7   am
    16     7     8    1
    17     7    37    1
    18     8     9    1
    19     8    27    1
    20     8    10    1
    21    10    11    1
    22    10    38    1
    23    10    39    1
    24    11    12    1
    25    11    40    1
    26    11    41    1
    27    12    13   am
    28    12    24    1
    29    13    14    2
    30    13    15    1
    31    15    23   ar
    32    15    16   ar
    33    16    17   ar
    34    16    42    1
    35    17    18   ar
    36    17    43    1
    37    18    22   ar
    38    18    19    1
    39    19    20    1
    40    19    44    1
    41    19    45    1
    42    20    21    1
    43    21    22    1
    44    21    46    1
    45    21    47    1
    46    22    23   ar
    47    23    48    1
    48    24    25    1
    49    24    26    1
    50    24    27    1
    51    26    49    1
    52    26    50    1
    53    26    51    1
    54    27    52    1
    55    27    53    1
@<TRIPOS>SUBSTRUCTURE
     1 ZINC001074839487        1 TEMP              0 ****  ****    0 ROOT


##########                                Name:    ZINC000347662449
##########                DOCK_Rotatable_Bonds:                   5
##########                         Heavy_Atoms:                  23
##########                    Molecular_Weight:              327.45
##########                DOCK_Rotatable_Bonds:                   5
##########                       Formal_Charge:                0.03
##########                     HBond_Acceptors:                   5
##########                        HBond_Donors:                   0
##########                         Heavy_Atoms:                  23
##########                          Grid_Score:          -31.079960
##########                     Grid_vdw_energy:          -30.251442
##########                      Grid_es_energy:           -0.828518
##########           Internal_energy_repulsive:            3.558079

@<TRIPOS>MOLECULE
ZINC000347662449
 44 46 1 0 0
SMALL
USER_CHARGES


@<TRIPOS>ATOM
      1 C1        -13.2966   -4.4817   54.5273 C.2     1  ZINC000347662449   -0.1800
      2 C2        -12.5327   -3.6228   53.8989 C.2     1  ZINC000347662449   -0.1700
      3 C3        -11.1809   -3.2649   54.4605 C.3     1  ZINC000347662449    0.1600
      4 N4        -10.8688   -1.8717   54.1318 N.am    1  ZINC000347662449   -0.6200
      5 C5        -11.2559   -0.7200   54.9550 C.3     1  ZINC000347662449    0.1100
      6 C6        -10.3663    0.4479   54.4742 C.3     1  ZINC000347662449   -0.1100
      7 C7        -10.0433    0.0214   53.0234 C.3     1  ZINC000347662449   -0.1200
      8 H8        -10.7533    0.4681   52.3274 H       1  ZINC000347662449    0.1400
      9 S9         -8.3504    0.4908   52.5874 S.3     1  ZINC000347662449    0.0300
     10 C10        -8.6106    2.1673   52.1116 C.2     1  ZINC000347662449    0.1900
     11 N11        -9.7286    2.8410   52.2518 N.2     1  ZINC000347662449   -0.4500
     12 C12        -9.5593    4.0878   51.7801 C.2     1  ZINC000347662449   -0.0100
     13 C13        -8.2984    4.2036   51.3297 C.2     1  ZINC000347662449   -0.0400
     14 N14        -7.6832    2.9880   51.5403 N.pl3   1  ZINC000347662449   -0.4000
     15 C15        -6.3592    2.6562   51.2206 C.ar    1  ZINC000347662449    0.1100
     16 C16        -6.0925    1.8134   50.1504 C.ar    1  ZINC000347662449   -0.1100
     17 C17        -4.7868    1.4881   49.8378 C.ar    1  ZINC000347662449   -0.1000
     18 C18        -3.7462    2.0011   50.5897 C.ar    1  ZINC000347662449   -0.0800
     19 C19        -2.3228    1.6448   50.2457 C.3     1  ZINC000347662449   -0.1200
     20 C20        -4.0088    2.8411   51.6565 C.ar    1  ZINC000347662449   -0.0700
     21 C21        -2.8716    3.3983   52.4736 C.3     1  ZINC000347662449   -0.1200
     22 C22        -5.3117    3.1745   51.9703 C.ar    1  ZINC000347662449   -0.1100
     23 C23       -10.1863   -1.4846   53.0405 C.2     1  ZINC000347662449    0.5300
     24 O24        -9.7543   -2.2330   52.1895 O.2     1  ZINC000347662449   -0.4900
     25 H25       -12.9575   -4.9333   55.4480 H       1  ZINC000347662449    0.1000
     26 H26       -14.2672   -4.7349   54.1272 H       1  ZINC000347662449    0.1000
     27 H27       -12.8719   -3.1713   52.9783 H       1  ZINC000347662449    0.1100
     28 H28       -11.1929   -3.3888   55.5433 H       1  ZINC000347662449    0.0900
     29 H29       -10.4233   -3.9186   54.0284 H       1  ZINC000347662449    0.0900
     30 H30       -12.3081   -0.4816   54.7993 H       1  ZINC000347662449    0.0800
     31 H31       -11.0676   -0.9288   56.0081 H       1  ZINC000347662449    0.0900
     32 H32       -10.9157    1.3892   54.4908 H       1  ZINC000347662449    0.1100
     33 H33        -9.4575    0.5177   55.0719 H       1  ZINC000347662449    0.0900
     34 H34       -10.3092    4.8649   51.7655 H       1  ZINC000347662449    0.1800
     35 H35        -7.8512    5.0827   50.8897 H       1  ZINC000347662449    0.1800
     36 H36        -6.9050    1.4120   49.5629 H       1  ZINC000347662449    0.1300
     37 H37        -4.5787    0.8321   49.0055 H       1  ZINC000347662449    0.1300
     38 H38        -1.9276    2.3717   49.5362 H       1  ZINC000347662449    0.0800
     39 H39        -1.7168    1.6548   51.1517 H       1  ZINC000347662449    0.0700
     40 H40        -2.2947    0.6502   49.8007 H       1  ZINC000347662449    0.0700
     41 H41        -2.5451    4.3452   52.0437 H       1  ZINC000347662449    0.0800
     42 H42        -3.2059    3.5605   53.4984 H       1  ZINC000347662449    0.0700
     43 H43        -2.0414    2.6920   52.4698 H       1  ZINC000347662449    0.0800
     44 H44        -5.5162    3.8306   52.8033 H       1  ZINC000347662449    0.1300
@<TRIPOS>BOND
     1     1     2    2
     2     1    25    1
     3     1    26    1
     4     2     3    1
     5     2    27    1
     6     3     4    1
     7     3    28    1
     8     3    29    1
     9     4    23   am
    10     4     5    1
    11     5     6    1
    12     5    30    1
    13     5    31    1
    14     6     7    1
    15     6    32    1
    16     6    33    1
    17     7     8    1
    18     7     9    1
    19     7    23    1
    20     9    10    1
    21    10    14    1
    22    10    11    2
    23    11    12    1
    24    12    13    2
    25    12    34    1
    26    13    14    1
    27    13    35    1
    28    14    15    1
    29    15    22   ar
    30    15    16   ar
    31    16    17   ar
    32    16    36    1
    33    17    18   ar
    34    17    37    1
    35    18    19    1
    36    18    20   ar
    37    19    38    1
    38    19    39    1
    39    19    40    1
    40    20    21    1
    41    20    22   ar
    42    21    41    1
    43    21    42    1
    44    21    43    1
    45    22    44    1
    46    23    24    2
@<TRIPOS>SUBSTRUCTURE
     1 ZINC000347662449        1 TEMP              0 ****  ****    0 ROOT


##########                                Name:    ZINC000504638019
##########                DOCK_Rotatable_Bonds:                   8
##########                         Heavy_Atoms:                  24
##########                    Molecular_Weight:             328.454
##########                DOCK_Rotatable_Bonds:                   8
##########                       Formal_Charge:        -1.49012e-08
##########                     HBond_Acceptors:                   4
##########                        HBond_Donors:                   1
##########                         Heavy_Atoms:                  24
##########                          Grid_Score:          -31.046280
##########                     Grid_vdw_energy:          -29.775372
##########                      Grid_es_energy:           -1.270908
##########           Internal_energy_repulsive:           12.198679

@<TRIPOS>MOLECULE
ZINC000504638019
 52 53 1 0 0
SMALL
USER_CHARGES


@<TRIPOS>ATOM
      1 C1         -9.2801   -2.2878   60.8509 C.3     1  ZINC000504638019   -0.1200
      2 C2        -10.1976   -2.7376   59.7432 C.ar    1  ZINC000504638019   -0.0900
      3 C3        -11.4003   -2.0886   59.5356 C.ar    1  ZINC000504638019   -0.1200
      4 C4        -12.2419   -2.5012   58.5196 C.ar    1  ZINC000504638019   -0.1100
      5 C5        -11.8806   -3.5626   57.7110 C.ar    1  ZINC000504638019   -0.0900
      6 C6        -12.7984   -4.0127   56.6036 C.3     1  ZINC000504638019   -0.0600
      7 H7        -12.3317   -4.8307   56.0549 H       1  ZINC000504638019    0.0900
      8 C8        -14.1233   -4.4902   57.2018 C.3     1  ZINC000504638019   -0.1500
      9 C9        -13.0604   -2.8439   55.6518 C.3     1  ZINC000504638019    0.1300
     10 N10       -11.7843   -2.3216   55.1569 N.am    1  ZINC000504638019   -0.7000
     11 C11       -11.7703   -1.3644   54.2081 C.2     1  ZINC000504638019    0.5100
     12 O12       -12.8149   -0.9343   53.7647 O.2     1  ZINC000504638019   -0.5100
     13 C13       -10.4685   -0.8329   53.7019 C.2     1  ZINC000504638019    0.5100
     14 O14        -9.9773   -1.2919   52.6917 O.2     1  ZINC000504638019   -0.5200
     15 N15        -9.8401    0.1564   54.3674 N.am    1  ZINC000504638019   -0.5800
     16 C16       -10.4331    0.7107   55.5869 C.3     1  ZINC000504638019    0.0600
     17 C17        -8.5639    0.6775   53.8713 C.3     1  ZINC000504638019    0.1100
     18 C18        -8.8077    1.5057   52.6082 C.3     1  ZINC000504638019   -0.1000
     19 H19        -9.4071    0.9303   51.9027 H       1  ZINC000504638019    0.0800
     20 C20        -7.4677    1.8713   51.9661 C.3     1  ZINC000504638019   -0.0800
     21 C21        -7.6731    2.8951   50.8883 C.2     1  ZINC000504638019   -0.1500
     22 C22        -8.7408    3.6168   50.7676 C.2     1  ZINC000504638019   -0.1600
     23 C23        -9.9267    3.5235   51.6825 C.3     1  ZINC000504638019   -0.0900
     24 C24        -9.5444    2.8004   52.9747 C.3     1  ZINC000504638019   -0.1100
     25 C25       -10.6772   -4.2107   57.9178 C.ar    1  ZINC000504638019   -0.1100
     26 C26        -9.8339   -3.7956   58.9314 C.ar    1  ZINC000504638019   -0.1200
     27 H27        -8.5994   -1.5255   60.4719 H       1  ZINC000504638019    0.0700
     28 H28        -9.8718   -1.8730   61.6670 H       1  ZINC000504638019    0.0700
     29 H29        -8.7054   -3.1393   61.2151 H       1  ZINC000504638019    0.0700
     30 H30       -11.6826   -1.2594   60.1673 H       1  ZINC000504638019    0.1200
     31 H31       -13.1819   -1.9946   58.3578 H       1  ZINC000504638019    0.1200
     32 H32       -14.7871   -4.8156   56.4008 H       1  ZINC000504638019    0.0600
     33 H33       -13.9366   -5.3228   57.8799 H       1  ZINC000504638019    0.0600
     34 H34       -14.5899   -3.6722   57.7506 H       1  ZINC000504638019    0.0600
     35 H35       -13.6627   -3.1879   54.8110 H       1  ZINC000504638019    0.0800
     36 H36       -13.5943   -2.0556   56.1827 H       1  ZINC000504638019    0.0800
     37 H37       -10.9494   -2.6645   55.5122 H       1  ZINC000504638019    0.4100
     38 H38       -10.1627    0.0865   56.4386 H       1  ZINC000504638019    0.0600
     39 H39       -10.0599    1.7225   55.7451 H       1  ZINC000504638019    0.0700
     40 H40       -11.5180    0.7353   55.4846 H       1  ZINC000504638019    0.1100
     41 H41        -8.1064    1.3060   54.6352 H       1  ZINC000504638019    0.0900
     42 H42        -7.8982   -0.1535   53.6380 H       1  ZINC000504638019    0.0900
     43 H43        -6.8010    2.2768   52.7273 H       1  ZINC000504638019    0.0800
     44 H44        -7.0181    0.9772   51.5342 H       1  ZINC000504638019    0.0600
     45 H45        -6.8806    3.0389   50.1688 H       1  ZINC000504638019    0.1000
     46 H46        -8.7807    4.3308   49.9582 H       1  ZINC000504638019    0.1000
     47 H47       -10.2798    4.5270   51.9199 H       1  ZINC000504638019    0.0700
     48 H48       -10.7237    2.9705   51.1857 H       1  ZINC000504638019    0.0700
     49 H49       -10.4441    2.5672   53.5441 H       1  ZINC000504638019    0.0700
     50 H50        -8.8855    3.4342   53.5682 H       1  ZINC000504638019    0.0700
     51 H51       -10.3947   -5.0397   57.2858 H       1  ZINC000504638019    0.1200
     52 H52        -8.8938   -4.3020   59.0929 H       1  ZINC000504638019    0.1200
@<TRIPOS>BOND
     1     1     2    1
     2     1    27    1
     3     1    28    1
     4     1    29    1
     5     2    26   ar
     6     2     3   ar
     7     3     4   ar
     8     3    30    1
     9     4     5   ar
    10     4    31    1
    11     5     6    1
    12     5    25   ar
    13     6     7    1
    14     6     8    1
    15     6     9    1
    16     8    32    1
    17     8    33    1
    18     8    34    1
    19     9    10    1
    20     9    35    1
    21     9    36    1
    22    10    11   am
    23    10    37    1
    24    11    12    2
    25    11    13    1
    26    13    14    2
    27    13    15   am
    28    15    16    1
    29    15    17    1
    30    16    38    1
    31    16    39    1
    32    16    40    1
    33    17    18    1
    34    17    41    1
    35    17    42    1
    36    18    19    1
    37    18    24    1
    38    18    20    1
    39    20    21    1
    40    20    43    1
    41    20    44    1
    42    21    22    2
    43    21    45    1
    44    22    23    1
    45    22    46    1
    46    23    24    1
    47    23    47    1
    48    23    48    1
    49    24    49    1
    50    24    50    1
    51    25    26   ar
    52    25    51    1
    53    26    52    1
@<TRIPOS>SUBSTRUCTURE
     1 ZINC000504638019        1 TEMP              0 ****  ****    0 ROOT


##########                                Name:    ZINC000477669194
##########                DOCK_Rotatable_Bonds:                   6
##########                         Heavy_Atoms:                  26
##########                    Molecular_Weight:             387.483
##########                DOCK_Rotatable_Bonds:                   6
##########                       Formal_Charge:         4.47035e-07
##########                     HBond_Acceptors:                   8
##########                        HBond_Donors:                   2
##########                         Heavy_Atoms:                  26
##########                          Grid_Score:          -31.020838
##########                     Grid_vdw_energy:          -29.903143
##########                      Grid_es_energy:           -1.117695
##########           Internal_energy_repulsive:           25.112577

@<TRIPOS>MOLECULE
ZINC000477669194
 43 45 1 0 0
SMALL
USER_CHARGES


@<TRIPOS>ATOM
      1 C1        -10.2878    0.7482   56.4240 C.3     1  ZINC000477669194   -0.0800
      2 C2        -10.7453   -0.4483   55.6301 C.2     1  ZINC000477669194    0.0500
      3 N3        -11.5133   -1.3789   56.0811 N.2     1  ZINC000477669194   -0.4900
      4 C4        -11.8219   -2.3635   55.2496 C.2     1  ZINC000477669194    0.1200
      5 C5        -12.6953   -3.4993   55.6326 C.ar    1  ZINC000477669194   -0.0600
      6 C6        -13.2243   -4.3360   54.6534 C.ar    1  ZINC000477669194   -0.0800
      7 C7        -14.0370   -5.3922   55.0149 C.ar    1  ZINC000477669194   -0.1400
      8 C8        -14.3286   -5.6235   56.3474 C.ar    1  ZINC000477669194   -0.0900
      9 C9        -13.8096   -4.7996   57.3284 C.ar    1  ZINC000477669194   -0.1300
     10 C10       -12.9869   -3.7387   56.9806 C.ar    1  ZINC000477669194    0.1800
     11 N11       -12.4609   -2.9049   57.9712 N.am    1  ZINC000477669194   -0.6500
     12 C12       -11.3240   -3.2489   58.6078 C.2     1  ZINC000477669194    0.5600
     13 O13       -10.7557   -4.2850   58.3203 O.2     1  ZINC000477669194   -0.5200
     14 C14       -10.7688   -2.3690   59.6532 C.ar    1  ZINC000477669194   -0.1500
     15 C15       -11.3272   -1.1067   59.8754 C.ar    1  ZINC000477669194   -0.0600
     16 C16       -10.8073   -0.2881   60.8518 C.ar    1  ZINC000477669194   -0.1400
     17 C17        -9.7264   -0.7159   61.6180 C.ar    1  ZINC000477669194    0.1700
     18 N18        -9.2034    0.1137   62.6038 N.am    1  ZINC000477669194   -1.0600
     19 S19        -9.8836    1.5972   62.8842 S.o2    1  ZINC000477669194    2.6100
     20 C20        -8.8901    2.3043   64.2271 C.3     1  ZINC000477669194   -0.6700
     21 O21        -9.6711    2.3142   61.6759 O.2     1  ZINC000477669194   -0.9400
     22 O22       -11.1969    1.3003   63.3386 O.2     1  ZINC000477669194   -0.9500
     23 C23        -9.1684   -1.9724   61.3994 C.ar    1  ZINC000477669194   -0.1600
     24 C24        -9.6868   -2.7976   60.4279 C.ar    1  ZINC000477669194   -0.0300
     25 C25       -11.2721   -2.2414   54.0243 C.2     1  ZINC000477669194   -0.2600
     26 S26       -10.3237   -0.7568   54.0027 S.3     1  ZINC000477669194    0.1500
     27 H27        -9.6523    1.3767   55.8002 H       1  ZINC000477669194    0.0800
     28 H28       -11.1558    1.3205   56.7512 H       1  ZINC000477669194    0.0900
     29 H29        -9.7245    0.4126   57.2948 H       1  ZINC000477669194    0.0900
     30 H30       -12.9996   -4.1588   53.6120 H       1  ZINC000477669194    0.1300
     31 H31       -14.4470   -6.0401   54.2543 H       1  ZINC000477669194    0.1300
     32 H32       -14.9649   -6.4515   56.6224 H       1  ZINC000477669194    0.1300
     33 H33       -14.0414   -4.9848   58.3668 H       1  ZINC000477669194    0.1500
     34 H34       -12.9141   -2.0785   58.2005 H       1  ZINC000477669194    0.4200
     35 H35       -12.1655   -0.7741   59.2813 H       1  ZINC000477669194    0.1300
     36 H36       -11.2379    0.6872   61.0237 H       1  ZINC000477669194    0.1400
     37 H37        -8.4401   -0.1767   63.1272 H       1  ZINC000477669194    0.4300
     38 H38        -7.8712    2.4699   63.8769 H       1  ZINC000477669194    0.1300
     39 H39        -9.3254    3.2533   64.5403 H       1  ZINC000477669194    0.1400
     40 H40        -8.8767    1.6146   65.0711 H       1  ZINC000477669194    0.1300
     41 H41        -8.3302   -2.3016   61.9957 H       1  ZINC000477669194    0.1700
     42 H42        -9.2537   -3.7724   60.2591 H       1  ZINC000477669194    0.1500
     43 H43       -11.3946   -2.9295   53.2011 H       1  ZINC000477669194    0.1800
@<TRIPOS>BOND
     1     1     2    1
     2     1    27    1
     3     1    28    1
     4     1    29    1
     5     2    26    1
     6     2     3    2
     7     3     4    1
     8     4     5    1
     9     4    25    2
    10     5    10   ar
    11     5     6   ar
    12     6     7   ar
    13     6    30    1
    14     7     8   ar
    15     7    31    1
    16     8     9   ar
    17     8    32    1
    18     9    10   ar
    19     9    33    1
    20    10    11    1
    21    11    12   am
    22    11    34    1
    23    12    13    2
    24    12    14    1
    25    14    24   ar
    26    14    15   ar
    27    15    16   ar
    28    15    35    1
    29    16    17   ar
    30    16    36    1
    31    17    18    1
    32    17    23   ar
    33    18    19   am
    34    18    37    1
    35    19    20    1
    36    19    21    2
    37    19    22    2
    38    20    38    1
    39    20    39    1
    40    20    40    1
    41    23    24   ar
    42    23    41    1
    43    24    42    1
    44    25    26    1
    45    25    43    1
@<TRIPOS>SUBSTRUCTURE
     1 ZINC000477669194        1 TEMP              0 ****  ****    0 ROOT


##########                                Name:    ZINC001016082614
##########                DOCK_Rotatable_Bonds:                   6
##########                         Heavy_Atoms:                  25
##########                    Molecular_Weight:             348.402
##########                DOCK_Rotatable_Bonds:                   6
##########                       Formal_Charge:         -0.00999998
##########                     HBond_Acceptors:                   8
##########                        HBond_Donors:                   1
##########                         Heavy_Atoms:                  25
##########                          Grid_Score:          -31.012232
##########                     Grid_vdw_energy:          -30.034941
##########                      Grid_es_energy:           -0.977291
##########           Internal_energy_repulsive:           33.497440

@<TRIPOS>MOLECULE
ZINC001016082614
 49 51 1 0 0
SMALL
USER_CHARGES


@<TRIPOS>ATOM
      1 C1        -11.8227    2.2716   60.9767 C.3     1  ZINC001016082614   -0.1700
      2 C2        -11.3869    1.1426   61.9129 C.3     1  ZINC001016082614    0.1000
      3 N3        -11.7938   -0.1458   61.3467 N.am    1  ZINC001016082614   -0.6100
      4 C4        -12.9332   -0.7344   61.7613 C.2     1  ZINC001016082614    0.6100
      5 O5        -13.2713   -1.8045   61.2910 O.2     1  ZINC001016082614   -0.5100
      6 C6        -13.7661   -0.0848   62.7797 C.2     1  ZINC001016082614   -0.1100
      7 C7        -14.3083   -0.6729   63.8837 C.2     1  ZINC001016082614    0.0600
      8 N8        -14.9923    0.2674   64.5437 N.2     1  ZINC001016082614   -0.4900
      9 C9        -14.8936    1.3977   63.8969 C.2     1  ZINC001016082614    0.2000
     10 O10       -14.1398    1.2157   62.8082 O.3     1  ZINC001016082614   -0.1900
     11 C11       -10.9622   -0.7945   60.3299 C.3     1  ZINC001016082614    0.1600
     12 H12       -10.0636   -0.1949   60.1854 H       1  ZINC001016082614    0.0800
     13 C13       -10.5494   -2.1694   60.8467 C.3     1  ZINC001016082614   -0.1300
     14 C14        -9.2504   -2.5784   60.1973 C.3     1  ZINC001016082614   -0.1300
     15 C15        -9.5304   -3.3877   58.9180 C.3     1  ZINC001016082614    0.1000
     16 N16       -10.6540   -2.8288   58.1408 N.am    1  ZINC001016082614   -0.6000
     17 C17       -11.5532   -3.6769   57.6038 C.2     1  ZINC001016082614    0.5000
     18 O18       -11.4297   -4.8727   57.7637 O.2     1  ZINC001016082614   -0.5200
     19 C19       -12.7123   -3.1393   56.8046 C.3     1  ZINC001016082614    0.1100
     20 H20       -12.9751   -2.1389   57.1486 H       1  ZINC001016082614    0.1100
     21 C21       -13.9290   -4.0833   56.9262 C.3     1  ZINC001016082614   -0.1200
     22 C22       -13.7507   -4.9886   55.6854 C.3     1  ZINC001016082614   -0.1600
     23 C23       -12.9419   -4.1457   54.7242 C.2     1  ZINC001016082614    0.5300
     24 O24       -12.8216   -4.3673   53.5379 O.2     1  ZINC001016082614   -0.5300
     25 N25       -12.3756   -3.1131   55.3764 N.am    1  ZINC001016082614   -0.7100
     26 C26       -10.8297   -1.4090   57.9323 C.3     1  ZINC001016082614    0.1300
     27 C27       -11.7113   -0.8258   59.0644 C.3     1  ZINC001016082614   -0.1600
     28 H28       -11.5200    3.2302   61.3979 H       1  ZINC001016082614    0.0700
     29 H29       -11.3521    2.1378   60.0026 H       1  ZINC001016082614    0.0500
     30 H30       -12.9065    2.2509   60.8625 H       1  ZINC001016082614    0.0600
     31 H31       -10.3030    1.1633   62.0271 H       1  ZINC001016082614    0.0900
     32 H32       -11.8574    1.2763   62.8869 H       1  ZINC001016082614    0.0900
     33 H33       -14.2047   -1.7085   64.1720 H       1  ZINC001016082614    0.2000
     34 H34       -15.3452    2.3319   64.1965 H       1  ZINC001016082614    0.2600
     35 H35       -10.4179   -2.1271   61.9279 H       1  ZINC001016082614    0.0700
     36 H36       -11.3231   -2.8972   60.6022 H       1  ZINC001016082614    0.0800
     37 H37        -8.6772   -1.6869   59.9427 H       1  ZINC001016082614    0.0700
     38 H38        -8.6752   -3.1893   60.8929 H       1  ZINC001016082614    0.0800
     39 H39        -8.6352   -3.3878   58.2961 H       1  ZINC001016082614    0.0700
     40 H40        -9.7676   -4.4152   59.1941 H       1  ZINC001016082614    0.0800
     41 H41       -13.8795   -4.6670   57.8453 H       1  ZINC001016082614    0.1000
     42 H42       -14.8633   -3.5246   56.8704 H       1  ZINC001016082614    0.1000
     43 H43       -13.2058   -5.8949   55.9496 H       1  ZINC001016082614    0.1100
     44 H44       -14.7196   -5.2374   55.2523 H       1  ZINC001016082614    0.1100
     45 H45       -11.8177   -2.4401   54.9560 H       1  ZINC001016082614    0.4200
     46 H46        -9.8565   -0.9181   57.9381 H       1  ZINC001016082614    0.0800
     47 H47       -11.3148   -1.2408   56.9708 H       1  ZINC001016082614    0.0900
     48 H48       -12.6012   -1.4438   59.1833 H       1  ZINC001016082614    0.0900
     49 H49       -12.0120    0.1883   58.8014 H       1  ZINC001016082614    0.0700
@<TRIPOS>BOND
     1     1     2    1
     2     1    28    1
     3     1    29    1
     4     1    30    1
     5     2     3    1
     6     2    31    1
     7     2    32    1
     8     3     4   am
     9     3    11    1
    10     4     5    2
    11     4     6    1
    12     6    10    1
    13     6     7    2
    14     7     8    1
    15     7    33    1
    16     8     9    2
    17     9    10    1
    18     9    34    1
    19    11    12    1
    20    11    27    1
    21    11    13    1
    22    13    14    1
    23    13    35    1
    24    13    36    1
    25    14    15    1
    26    14    37    1
    27    14    38    1
    28    15    16    1
    29    15    39    1
    30    15    40    1
    31    16    17   am
    32    16    26    1
    33    17    18    2
    34    17    19    1
    35    19    20    1
    36    19    25    1
    37    19    21    1
    38    21    22    1
    39    21    41    1
    40    21    42    1
    41    22    23    1
    42    22    43    1
    43    22    44    1
    44    23    24    2
    45    23    25   am
    46    25    45    1
    47    26    27    1
    48    26    46    1
    49    26    47    1
    50    27    48    1
    51    27    49    1
@<TRIPOS>SUBSTRUCTURE
     1 ZINC001016082614        1 TEMP              0 ****  ****    0 ROOT


##########                                Name:    ZINC001013196242
##########                DOCK_Rotatable_Bonds:                   5
##########                         Heavy_Atoms:                  24
##########                    Molecular_Weight:              349.86
##########                DOCK_Rotatable_Bonds:                   5
##########                       Formal_Charge:        -3.05474e-07
##########                     HBond_Acceptors:                   6
##########                        HBond_Donors:                   1
##########                         Heavy_Atoms:                  24
##########                          Grid_Score:          -30.977856
##########                     Grid_vdw_energy:          -28.486496
##########                      Grid_es_energy:           -2.491360
##########           Internal_energy_repulsive:           11.429749

@<TRIPOS>MOLECULE
ZINC001013196242
 48 51 1 0 0
SMALL
USER_CHARGES


@<TRIPOS>ATOM
      1 C1        -11.6342   -2.8131   55.7947 C.3     1  ZINC001013196242   -0.1600
      2 C2        -11.8374   -1.4089   56.3673 C.3     1  ZINC001013196242    0.1400
      3 H3        -12.9010   -1.2167   56.5085 H       1  ZINC001013196242    0.0800
      4 C4        -11.2370   -0.3592   55.4086 C.3     1  ZINC001013196242   -0.1400
      5 C5        -10.6124    0.6793   56.3776 C.3     1  ZINC001013196242    0.1300
      6 H6        -11.3658    1.3796   56.7382 H       1  ZINC001013196242    0.1100
      7 N7         -9.5010    1.3900   55.7404 N.am    1  ZINC001013196242   -0.7200
      8 C8         -9.6827    2.6386   55.2669 C.2     1  ZINC001013196242    0.5400
      9 O9        -10.7658    3.1745   55.3697 O.2     1  ZINC001013196242   -0.5200
     10 C10        -8.5400    3.3689   54.6098 C.3     1  ZINC001013196242   -0.1400
     11 C11        -7.2834    2.5014   54.4187 C.3     1  ZINC001013196242   -0.0800
     12 C12        -7.8673    2.1030   53.0589 C.3     1  ZINC001013196242   -0.1600
     13 C13        -7.1681    1.4258   51.8855 C.3     1  ZINC001013196242   -0.1700
     14 C14        -8.3352    0.7296   52.5907 C.3     1  ZINC001013196242   -0.1400
     15 C15        -8.6450    3.4234   53.0755 C.3     1  ZINC001013196242   -0.0800
     16 C16       -10.1060   -0.2307   57.5245 C.3     1  ZINC001013196242    0.0800
     17 N17       -11.1324   -1.2859   57.6516 N.am    1  ZINC001013196242   -0.6000
     18 C18       -11.3779   -2.0134   58.7591 C.2     1  ZINC001013196242    0.6100
     19 O19       -12.2507   -2.8615   58.7490 O.2     1  ZINC001013196242   -0.5400
     20 C20       -10.5932   -1.7832   59.9767 C.2     1  ZINC001013196242   -0.0400
     21 C21       -10.8232   -0.8057   60.9216 C.2     1  ZINC001013196242   -0.1400
     22 C22        -9.8422   -0.9489   61.9085 C.2     1  ZINC001013196242   -0.1200
     23 Cl23       -9.6731    0.0311   63.3315 Cl      1  ZINC001013196242   -0.0400
     24 C24        -9.0475   -1.9887   61.5567 C.2     1  ZINC001013196242    0.0400
     25 N25        -9.4969   -2.5073   60.3869 N.pl3   1  ZINC001013196242   -0.4000
     26 C26        -8.9083   -3.6440   59.6741 C.3     1  ZINC001013196242    0.0700
     27 H27       -12.0555   -3.5492   56.4793 H       1  ZINC001013196242    0.0700
     28 H28       -12.1339   -2.8875   54.8287 H       1  ZINC001013196242    0.0700
     29 H29       -10.5683   -3.0031   55.6679 H       1  ZINC001013196242    0.0600
     30 H30       -10.4700   -0.8076   54.7773 H       1  ZINC001013196242    0.0900
     31 H31       -12.0174    0.1001   54.8020 H       1  ZINC001013196242    0.0900
     32 H32        -8.6344    0.9617   55.6593 H       1  ZINC001013196242    0.4000
     33 H33        -8.3376    4.3372   55.0678 H       1  ZINC001013196242    0.1000
     34 H34        -6.3610    3.0778   54.3465 H       1  ZINC001013196242    0.1000
     35 H35        -7.2126    1.6732   55.1237 H       1  ZINC001013196242    0.0700
     36 H36        -7.3502    1.8298   50.8896 H       1  ZINC001013196242    0.1000
     37 H37        -6.1674    1.0290   52.0565 H       1  ZINC001013196242    0.0900
     38 H38        -8.1023   -0.1252   53.2256 H       1  ZINC001013196242    0.0900
     39 H39        -9.2852    0.6757   52.0587 H       1  ZINC001013196242    0.1000
     40 H40        -9.6657    3.3343   52.7036 H       1  ZINC001013196242    0.0800
     41 H41        -8.1016    4.2564   52.6294 H       1  ZINC001013196242    0.0900
     42 H42        -9.1417   -0.6672   57.2647 H       1  ZINC001013196242    0.0800
     43 H43       -10.0295    0.3359   58.4525 H       1  ZINC001013196242    0.1000
     44 H44       -11.6118   -0.0680   60.9030 H       1  ZINC001013196242    0.1600
     45 H45        -8.1977   -2.3481   62.1180 H       1  ZINC001013196242    0.1800
     46 H46        -9.4409   -4.5563   59.9426 H       1  ZINC001013196242    0.0800
     47 H47        -8.9879   -3.4797   58.5996 H       1  ZINC001013196242    0.1000
     48 H48        -7.8584   -3.7417   59.9501 H       1  ZINC001013196242    0.0900
@<TRIPOS>BOND
     1     1     2    1
     2     1    27    1
     3     1    28    1
     4     1    29    1
     5     2     3    1
     6     2    17    1
     7     2     4    1
     8     4     5    1
     9     4    30    1
    10     4    31    1
    11     5     6    1
    12     5     7    1
    13     5    16    1
    14     7     8   am
    15     7    32    1
    16     8     9    2
    17     8    10    1
    18    10    15    1
    19    10    11    1
    20    10    33    1
    21    11    12    1
    22    11    34    1
    23    11    35    1
    24    12    14    1
    25    12    13    1
    26    12    15    1
    27    13    14    1
    28    13    36    1
    29    13    37    1
    30    14    38    1
    31    14    39    1
    32    15    40    1
    33    15    41    1
    34    16    17    1
    35    16    42    1
    36    16    43    1
    37    17    18   am
    38    18    19    2
    39    18    20    1
    40    20    25    1
    41    20    21    2
    42    21    22    1
    43    21    44    1
    44    22    23    1
    45    22    24    2
    46    24    25    1
    47    24    45    1
    48    25    26    1
    49    26    46    1
    50    26    47    1
    51    26    48    1
@<TRIPOS>SUBSTRUCTURE
     1 ZINC001013196242        1 TEMP              0 ****  ****    0 ROOT


##########                                Name:    ZINC000894043060
##########                DOCK_Rotatable_Bonds:                  11
##########                         Heavy_Atoms:                  26
##########                    Molecular_Weight:             396.812
##########                DOCK_Rotatable_Bonds:                  11
##########                       Formal_Charge:          -0.0199999
##########                     HBond_Acceptors:                   9
##########                        HBond_Donors:                   2
##########                         Heavy_Atoms:                  26
##########                          Grid_Score:          -30.973989
##########                     Grid_vdw_energy:          -31.183224
##########                      Grid_es_energy:            0.209235
##########           Internal_energy_repulsive:           14.593217

@<TRIPOS>MOLECULE
ZINC000894043060
 47 47 1 0 0
SMALL
USER_CHARGES


@<TRIPOS>ATOM
      1 C1        -12.1954    0.1893   52.2132 C.3     1  ZINC000894043060   -0.1700
      2 C2        -11.5278   -0.9887   52.9256 C.3     1  ZINC000894043060    0.1000
      3 H3        -11.0836   -1.6558   52.1868 H       1  ZINC000894043060    0.1100
      4 N4        -12.5303   -1.7205   53.7039 N.am    1  ZINC000894043060   -0.7300
      5 C5        -12.2835   -2.9842   54.1021 C.2     1  ZINC000894043060    0.5200
      6 O6        -11.2321   -3.5161   53.8149 O.2     1  ZINC000894043060   -0.5200
      7 C7        -13.3141   -3.7362   54.9042 C.3     1  ZINC000894043060   -0.1400
      8 C8        -13.4858   -3.0670   56.2693 C.3     1  ZINC000894043060   -0.0200
      9 C9        -14.6418   -3.7303   57.0207 C.3     1  ZINC000894043060   -0.1400
     10 C10       -15.0914   -2.8324   58.1445 C.2     1  ZINC000894043060    0.5200
     11 O11       -16.0341   -2.0863   57.9844 O.2     1  ZINC000894043060   -0.5200
     12 N12       -14.4459   -2.8585   59.3273 N.am    1  ZINC000894043060   -0.7300
     13 C13       -14.8840   -1.9868   60.4202 C.3     1  ZINC000894043060    0.1000
     14 H14       -15.9688   -2.0379   60.5131 H       1  ZINC000894043060    0.1200
     15 C15       -14.2379   -2.4459   61.7290 C.3     1  ZINC000894043060   -0.1700
     16 C16       -14.4648   -0.5458   60.1226 C.3     1  ZINC000894043060    0.2600
     17 F17       -14.8766    0.2855   61.1698 F       1  ZINC000894043060   -0.1900
     18 F18       -13.0731   -0.4816   59.9959 F       1  ZINC000894043060   -0.2000
     19 C19       -12.2159   -3.2185   57.0664 C.ar    1  ZINC000894043060   -0.0600
     20 C20       -11.7178   -4.4789   57.3393 C.ar    1  ZINC000894043060   -0.1200
     21 C21       -10.5531   -4.6186   58.0703 C.ar    1  ZINC000894043060   -0.1200
     22 C22        -9.8858   -3.4967   58.5290 C.ar    1  ZINC000894043060   -0.0400
     23 Cl23       -8.4226   -3.6713   59.4468 Cl      1  ZINC000894043060   -0.0800
     24 C24       -10.3849   -2.2356   58.2555 C.ar    1  ZINC000894043060   -0.1100
     25 C25       -11.5466   -2.0971   57.5196 C.ar    1  ZINC000894043060   -0.0400
     26 C26       -10.4367   -0.4662   53.8623 C.3     1  ZINC000894043060    0.2600
     27 F27        -9.4987    0.2636   53.1243 F       1  ZINC000894043060   -0.2000
     28 F28       -11.0120    0.3607   54.8329 F       1  ZINC000894043060   -0.1900
     29 H29       -12.6396    0.8563   52.9520 H       1  ZINC000894043060    0.0600
     30 H30       -11.4495    0.7337   51.6341 H       1  ZINC000894043060    0.0800
     31 H31       -12.9727   -0.1830   51.5459 H       1  ZINC000894043060    0.0800
     32 H32       -13.3717   -1.2954   53.9325 H       1  ZINC000894043060    0.4000
     33 H33       -14.2657   -3.7270   54.3728 H       1  ZINC000894043060    0.1000
     34 H34       -12.9855   -4.7662   55.0434 H       1  ZINC000894043060    0.1000
     35 H35       -13.7031   -2.0080   56.1300 H       1  ZINC000894043060    0.1000
     36 H36       -15.4724   -3.8977   56.3350 H       1  ZINC000894043060    0.1000
     37 H37       -14.3097   -4.6847   57.4290 H       1  ZINC000894043060    0.1000
     38 H38       -13.6912   -3.4543   59.4549 H       1  ZINC000894043060    0.4000
     39 H39       -13.1530   -2.3948   61.6360 H       1  ZINC000894043060    0.0700
     40 H40       -14.5638   -1.7973   62.5421 H       1  ZINC000894043060    0.0800
     41 H41       -14.5365   -3.4725   61.9410 H       1  ZINC000894043060    0.0700
     42 H42       -14.9298   -0.2168   59.1933 H       1  ZINC000894043060    0.1200
     43 H43       -12.2389   -5.3545   56.9816 H       1  ZINC000894043060    0.1200
     44 H44       -10.1642   -5.6032   58.2838 H       1  ZINC000894043060    0.1300
     45 H45        -9.8645   -1.3596   58.6136 H       1  ZINC000894043060    0.1300
     46 H46       -11.9360   -1.1127   57.3058 H       1  ZINC000894043060    0.1300
     47 H47        -9.9418   -1.3070   54.3484 H       1  ZINC000894043060    0.1100
@<TRIPOS>BOND
     1     1     2    1
     2     1    29    1
     3     1    30    1
     4     1    31    1
     5     2     3    1
     6     2     4    1
     7     2    26    1
     8     4     5   am
     9     4    32    1
    10     5     6    2
    11     5     7    1
    12     7     8    1
    13     7    33    1
    14     7    34    1
    15     8     9    1
    16     8    19    1
    17     8    35    1
    18     9    10    1
    19     9    36    1
    20     9    37    1
    21    10    11    2
    22    10    12   am
    23    12    13    1
    24    12    38    1
    25    13    14    1
    26    13    15    1
    27    13    16    1
    28    15    39    1
    29    15    40    1
    30    15    41    1
    31    16    17    1
    32    16    18    1
    33    16    42    1
    34    19    25   ar
    35    19    20   ar
    36    20    21   ar
    37    20    43    1
    38    21    22   ar
    39    21    44    1
    40    22    23    1
    41    22    24   ar
    42    24    25   ar
    43    24    45    1
    44    25    46    1
    45    26    27    1
    46    26    28    1
    47    26    47    1
@<TRIPOS>SUBSTRUCTURE
     1 ZINC000894043060        1 TEMP              0 ****  ****    0 ROOT


##########                                Name:    ZINC000962730513
##########                DOCK_Rotatable_Bonds:                   6
##########                         Heavy_Atoms:                  24
##########                    Molecular_Weight:             342.465
##########                DOCK_Rotatable_Bonds:                   6
##########                       Formal_Charge:         -0.00999998
##########                     HBond_Acceptors:                   6
##########                        HBond_Donors:                   1
##########                         Heavy_Atoms:                  24
##########                          Grid_Score:          -30.962902
##########                     Grid_vdw_energy:          -31.967939
##########                      Grid_es_energy:            1.005037
##########           Internal_energy_repulsive:           11.877920

@<TRIPOS>MOLECULE
ZINC000962730513
 46 49 1 0 0
SMALL
USER_CHARGES


@<TRIPOS>ATOM
      1 C1          3.1715    1.8746   46.7002 C.3     1  ZINC000962730513   -0.1400
      2 C2          1.9103    1.7463   47.5570 C.3     1  ZINC000962730513   -0.0800
      3 C3          2.2765    1.8780   49.0129 C.2     1  ZINC000962730513   -0.0100
      4 C4          1.3615    1.8168   50.0261 C.2     1  ZINC000962730513   -0.2800
      5 C5         -0.0811    1.6182   49.8584 C.2     1  ZINC000962730513    0.6000
      6 O6         -0.5133    1.1369   48.8275 O.2     1  ZINC000962730513   -0.5200
      7 N7         -0.9288    1.9687   50.8457 N.am    1  ZINC000962730513   -0.7000
      8 C8         -2.3708    1.7718   50.6774 C.3     1  ZINC000962730513    0.1200
      9 H9         -2.6901    0.7397   50.5337 H       1  ZINC000962730513    0.1400
     10 C10        -3.1492    2.8605   49.9360 C.3     1  ZINC000962730513   -0.1700
     11 H11        -2.6121    3.7037   49.5015 H       1  ZINC000962730513    0.1200
     12 C12        -4.5140    2.4871   49.3187 C.3     1  ZINC000962730513    0.0700
     13 N13        -5.4919    2.6977   50.4170 N.3     1  ZINC000962730513   -0.5000
     14 C14        -6.7270    1.9401   50.1748 C.3     1  ZINC000962730513    0.1100
     15 C15        -7.5616    1.9255   51.4295 C.ar    1  ZINC000962730513    0.3200
     16 N16        -8.1103    3.0483   51.8479 N.ar    1  ZINC000962730513   -0.5100
     17 C17        -8.8494    3.0738   52.9453 C.ar    1  ZINC000962730513    0.1500
     18 C18        -9.0424    1.8995   53.6556 C.ar    1  ZINC000962730513   -0.1900
     19 C19        -9.8774    1.8848   54.9101 C.3     1  ZINC000962730513   -0.1100
     20 C20        -8.4492    0.7389   53.1843 C.ar    1  ZINC000962730513    0.1500
     21 N21        -7.7276    0.7892   52.0762 N.ar    1  ZINC000962730513   -0.5000
     22 C22        -4.7917    2.2007   51.6294 C.3     1  ZINC000962730513    0.0700
     23 C23        -3.3048    2.6965   51.4606 C.3     1  ZINC000962730513   -0.1700
     24 H24        -2.9281    3.4192   52.1844 H       1  ZINC000962730513    0.1300
     25 S25         2.1921    2.0138   51.5633 S.3     1  ZINC000962730513    0.1900
     26 C26         3.7011    2.1660   50.7817 C.2     1  ZINC000962730513   -0.2200
     27 C27         3.5647    2.0658   49.4541 C.2     1  ZINC000962730513   -0.1500
     28 H28         3.6304    2.8482   46.8728 H       1  ZINC000962730513    0.0600
     29 H29         3.8757    1.0879   46.9703 H       1  ZINC000962730513    0.0500
     30 H30         2.9066    1.7794   45.6472 H       1  ZINC000962730513    0.0600
     31 H31         1.2060    2.5331   47.2868 H       1  ZINC000962730513    0.1000
     32 H32         1.4513    0.7728   47.3844 H       1  ZINC000962730513    0.0700
     33 H33        -0.5842    2.3513   51.6678 H       1  ZINC000962730513    0.4000
     34 H34        -4.7419    3.1404   48.4765 H       1  ZINC000962730513    0.0900
     35 H35        -4.5158    1.4438   49.0030 H       1  ZINC000962730513    0.0500
     36 H36        -7.2902    2.4114   49.3692 H       1  ZINC000962730513    0.1000
     37 H37        -6.4765    0.9174   49.8930 H       1  ZINC000962730513    0.0700
     38 H38        -9.2961    3.9974   53.2829 H       1  ZINC000962730513    0.1700
     39 H39       -10.9165    1.6800   54.6524 H       1  ZINC000962730513    0.0800
     40 H40        -9.5100    1.1091   55.5820 H       1  ZINC000962730513    0.0700
     41 H41        -9.8095    2.8545   55.4031 H       1  ZINC000962730513    0.0700
     42 H42        -8.5774   -0.1945   53.7121 H       1  ZINC000962730513    0.1700
     43 H43        -5.2286    2.6384   52.5269 H       1  ZINC000962730513    0.0800
     44 H44        -4.8369    1.1127   51.6753 H       1  ZINC000962730513    0.0600
     45 H45         4.6413    2.3187   51.2905 H       1  ZINC000962730513    0.1700
     46 H46         4.4043    2.1356   48.7785 H       1  ZINC000962730513    0.1500
@<TRIPOS>BOND
     1     1     2    1
     2     1    28    1
     3     1    29    1
     4     1    30    1
     5     2     3    1
     6     2    31    1
     7     2    32    1
     8     3    27    1
     9     3     4    2
    10     4     5    1
    11     4    25    1
    12     5     6    2
    13     5     7   am
    14     7     8    1
    15     7    33    1
    16     8     9    1
    17     8    23    1
    18     8    10    1
    19    10    11    1
    20    10    23    1
    21    10    12    1
    22    12    13    1
    23    12    34    1
    24    12    35    1
    25    13    14    1
    26    13    22    1
    27    14    15    1
    28    14    36    1
    29    14    37    1
    30    15    21   ar
    31    15    16   ar
    32    16    17   ar
    33    17    18   ar
    34    17    38    1
    35    18    19    1
    36    18    20   ar
    37    19    39    1
    38    19    40    1
    39    19    41    1
    40    20    21   ar
    41    20    42    1
    42    22    23    1
    43    22    43    1
    44    22    44    1
    45    23    24    1
    46    25    26    1
    47    26    27    2
    48    26    45    1
    49    27    46    1
@<TRIPOS>SUBSTRUCTURE
     1 ZINC000962730513        1 TEMP              0 ****  ****    0 ROOT


##########                                Name:    ZINC001045438664
##########                DOCK_Rotatable_Bonds:                   6
##########                         Heavy_Atoms:                  26
##########                    Molecular_Weight:             352.439
##########                DOCK_Rotatable_Bonds:                   6
##########                       Formal_Charge:          -0.0099999
##########                     HBond_Acceptors:                   7
##########                        HBond_Donors:                   2
##########                         Heavy_Atoms:                  26
##########                          Grid_Score:          -30.923525
##########                     Grid_vdw_energy:          -27.267168
##########                      Grid_es_energy:           -3.656358
##########           Internal_energy_repulsive:            8.524692

@<TRIPOS>MOLECULE
ZINC001045438664
 50 53 1 0 0
SMALL
USER_CHARGES


@<TRIPOS>ATOM
      1 C1         -8.7792   -3.4071   59.8648 C.3     1  ZINC001045438664   -0.1100
      2 C2         -9.8093   -3.0491   58.8246 C.ar    1  ZINC001045438664    0.2100
      3 C3         -9.9122   -1.7529   58.3605 C.ar    1  ZINC001045438664   -0.3000
      4 C4        -10.8818   -1.4691   57.3960 C.ar    1  ZINC001045438664    0.4500
      5 N5        -11.0245   -0.1842   56.8982 N.pl3   1  ZINC001045438664   -0.7100
      6 C6        -11.0513    0.9579   57.8153 C.3     1  ZINC001045438664    0.1500
      7 H7        -10.1900    0.9092   58.4816 H       1  ZINC001045438664    0.0900
      8 C8        -12.3382    0.9182   58.6418 C.3     1  ZINC001045438664   -0.1300
      9 C9        -12.3663    2.1110   59.5996 C.3     1  ZINC001045438664   -0.1200
     10 C10       -12.3163    3.4118   58.7958 C.3     1  ZINC001045438664   -0.1200
     11 C11       -11.0293    3.4515   57.9693 C.3     1  ZINC001045438664   -0.1300
     12 C12       -11.0013    2.2588   57.0115 C.3     1  ZINC001045438664    0.1400
     13 H13       -11.8626    2.3075   56.3453 H       1  ZINC001045438664    0.1000
     14 N14        -9.7691    2.2968   56.2202 N.am    1  ZINC001045438664   -0.7200
     15 C15        -9.8232    2.1512   54.8813 C.2     1  ZINC001045438664    0.5700
     16 O16       -10.8943    1.9870   54.3307 O.2     1  ZINC001045438664   -0.5200
     17 C17        -8.5798    2.1913   54.0826 C.ar    1  ZINC001045438664   -0.2500
     18 C18        -7.4075    2.7502   54.6039 C.ar    1  ZINC001045438664    0.1900
     19 N19        -6.3186    2.7647   53.8552 N.ar    1  ZINC001045438664   -0.5200
     20 C20        -6.3269    2.2632   52.6357 C.ar    1  ZINC001045438664    0.3200
     21 N21        -7.4091    1.7278   52.1057 N.ar    1  ZINC001045438664   -0.5200
     22 C22        -8.5404    1.6663   52.7859 C.ar    1  ZINC001045438664    0.2100
     23 N23       -11.6653   -2.4522   56.9629 N.ar    1  ZINC001045438664   -0.5800
     24 C24       -11.5319   -3.6756   57.4339 C.ar    1  ZINC001045438664    0.4000
     25 C25       -12.4389   -4.7626   56.9172 C.3     1  ZINC001045438664   -0.1100
     26 C26       -13.9033   -4.7301   57.3591 C.3     1  ZINC001045438664   -0.1500
     27 C27       -13.5294   -4.3593   55.9227 C.3     1  ZINC001045438664   -0.1500
     28 N28       -10.6238   -3.9763   58.3402 N.ar    1  ZINC001045438664   -0.5600
     29 H29        -7.8524   -3.7012   59.3722 H       1  ZINC001045438664    0.0800
     30 H30        -8.5930   -2.5440   60.5039 H       1  ZINC001045438664    0.0800
     31 H31        -9.1472   -4.2352   60.4706 H       1  ZINC001045438664    0.0800
     32 H32        -9.2597   -0.9776   58.7341 H       1  ZINC001045438664    0.1400
     33 H33       -11.1068   -0.0407   55.9424 H       1  ZINC001045438664    0.4100
     34 H34       -13.1996    0.9670   57.9756 H       1  ZINC001045438664    0.0700
     35 H35       -12.3739   -0.0086   59.2145 H       1  ZINC001045438664    0.0700
     36 H36       -13.2831    2.0828   60.1884 H       1  ZINC001045438664    0.0700
     37 H37       -11.5049    2.0622   60.2658 H       1  ZINC001045438664    0.0700
     38 H38       -13.1776    3.4606   58.1295 H       1  ZINC001045438664    0.0700
     39 H39       -12.3362    4.2616   59.4781 H       1  ZINC001045438664    0.0700
     40 H40       -10.9938    4.3783   57.3966 H       1  ZINC001045438664    0.0800
     41 H41       -10.1680    3.4028   58.6355 H       1  ZINC001045438664    0.0700
     42 H42        -8.9142    2.4266   56.6597 H       1  ZINC001045438664    0.4000
     43 H43        -7.3929    3.1633   55.6017 H       1  ZINC001045438664    0.1700
     44 H44        -5.4185    2.2921   52.0523 H       1  ZINC001045438664    0.2100
     45 H45        -9.4226    1.2262   52.3450 H       1  ZINC001045438664    0.1800
     46 H46       -11.9741   -5.7396   56.7855 H       1  ZINC001045438664    0.1300
     47 H47       -14.4022   -5.6861   57.5185 H       1  ZINC001045438664    0.1000
     48 H48       -14.2108   -3.9227   58.0236 H       1  ZINC001045438664    0.1100
     49 H49       -13.5908   -3.3078   55.6421 H       1  ZINC001045438664    0.1000
     50 H50       -13.7822   -5.0712   55.1369 H       1  ZINC001045438664    0.1000
@<TRIPOS>BOND
     1     1     2    1
     2     1    29    1
     3     1    30    1
     4     1    31    1
     5     2    28   ar
     6     2     3   ar
     7     3     4   ar
     8     3    32    1
     9     4     5    1
    10     4    23   ar
    11     5     6    1
    12     5    33    1
    13     6     7    1
    14     6    12    1
    15     6     8    1
    16     8     9    1
    17     8    34    1
    18     8    35    1
    19     9    10    1
    20     9    36    1
    21     9    37    1
    22    10    11    1
    23    10    38    1
    24    10    39    1
    25    11    12    1
    26    11    40    1
    27    11    41    1
    28    12    13    1
    29    12    14    1
    30    14    15   am
    31    14    42    1
    32    15    16    2
    33    15    17    1
    34    17    22   ar
    35    17    18   ar
    36    18    19   ar
    37    18    43    1
    38    19    20   ar
    39    20    21   ar
    40    20    44    1
    41    21    22   ar
    42    22    45    1
    43    23    24   ar
    44    24    25    1
    45    24    28   ar
    46    25    27    1
    47    25    26    1
    48    25    46    1
    49    26    27    1
    50    26    47    1
    51    26    48    1
    52    27    49    1
    53    27    50    1
@<TRIPOS>SUBSTRUCTURE
     1 ZINC001045438664        1 TEMP              0 ****  ****    0 ROOT


##########                                Name:    ZINC001707162141
##########                DOCK_Rotatable_Bonds:                   9
##########                         Heavy_Atoms:                  25
##########                    Molecular_Weight:               344.5
##########                DOCK_Rotatable_Bonds:                   9
##########                       Formal_Charge:          -0.0299999
##########                     HBond_Acceptors:                   5
##########                        HBond_Donors:                   1
##########                         Heavy_Atoms:                  25
##########                          Grid_Score:          -30.917639
##########                     Grid_vdw_energy:          -32.335060
##########                      Grid_es_energy:            1.417421
##########           Internal_energy_repulsive:           78.583572

@<TRIPOS>MOLECULE
ZINC001707162141
 57 59 1 0 0
SMALL
USER_CHARGES


@<TRIPOS>ATOM
      1 C1         -9.3291   -3.0177   60.4261 C.3     1  ZINC001707162141   -0.1800
      2 C2         -9.5397   -1.5291   60.1419 C.3     1  ZINC001707162141    0.1700
      3 H3         -8.7161   -1.1553   59.5336 H       1  ZINC001707162141    0.1000
      4 N4        -10.8055   -1.3426   59.4202 N.3     1  ZINC001707162141   -0.6400
      5 C5        -10.5645   -0.8973   58.0411 C.3     1  ZINC001707162141    0.0700
      6 C6        -11.7431   -1.3118   57.1581 C.3     1  ZINC001707162141    0.1500
      7 H7        -12.6393   -0.7751   57.4692 H       1  ZINC001707162141    0.0700
      8 C8        -11.9745   -2.8208   57.2854 C.3     1  ZINC001707162141   -0.1200
      9 C9        -13.0610   -3.2514   56.2974 C.3     1  ZINC001707162141   -0.0900
     10 H10       -13.9794   -2.7026   56.5059 H       1  ZINC001707162141    0.0700
     11 C11       -13.3192   -4.7522   56.4460 C.3     1  ZINC001707162141   -0.1500
     12 C12       -12.6013   -2.9522   54.8687 C.3     1  ZINC001707162141   -0.1300
     13 C13       -12.3771   -1.4447   54.7139 C.3     1  ZINC001707162141    0.1100
     14 N14       -11.4423   -0.9963   55.7550 N.am    1  ZINC001707162141   -0.6100
     15 C15       -10.3296   -0.3090   55.4290 C.2     1  ZINC001707162141    0.5100
     16 O16        -9.5658    0.0556   56.2977 O.2     1  ZINC001707162141   -0.4800
     17 C17       -10.0346    0.0064   53.9852 C.3     1  ZINC001707162141   -0.1400
     18 C18        -8.8500    0.9713   53.9058 C.3     1  ZINC001707162141   -0.0900
     19 C19        -8.7603    1.5536   52.4937 C.3     1  ZINC001707162141   -0.0900
     20 C20        -7.6086    2.5586   52.4287 C.3     1  ZINC001707162141   -0.1500
     21 C21        -7.9688    4.0362   52.2614 C.3     1  ZINC001707162141   -0.1800
     22 C22        -7.3581    3.2606   51.0925 C.3     1  ZINC001707162141   -0.1800
     23 C23        -9.5872   -0.7710   61.4436 C.ar    1  ZINC001707162141    0.3500
     24 N24        -8.7942   -1.1393   62.4296 N.ar    1  ZINC001707162141   -0.5000
     25 C25        -8.8042   -0.4940   63.5848 C.ar    1  ZINC001707162141    0.1500
     26 C26        -9.6715    0.5740   63.7529 C.ar    1  ZINC001707162141   -0.2400
     27 C27       -10.4941    0.9280   62.6950 C.ar    1  ZINC001707162141    0.1500
     28 N28       -10.4246    0.2391   61.5673 N.ar    1  ZINC001707162141   -0.5200
     29 H29        -9.2948   -3.5660   59.4847 H       1  ZINC001707162141    0.0600
     30 H30        -8.3900   -3.1560   60.9617 H       1  ZINC001707162141    0.0600
     31 H31       -10.1528   -3.3914   61.0344 H       1  ZINC001707162141    0.0600
     32 H32       -11.3586   -2.1863   59.4362 H       1  ZINC001707162141    0.3300
     33 H33       -10.4605    0.1875   58.0226 H       1  ZINC001707162141    0.1000
     34 H34        -9.6501   -1.3565   57.6656 H       1  ZINC001707162141    0.0200
     35 H35       -11.0487   -3.3509   57.0620 H       1  ZINC001707162141    0.0700
     36 H36       -12.2926   -3.0556   58.3012 H       1  ZINC001707162141    0.0700
     37 H37       -12.4011   -5.3012   56.2370 H       1  ZINC001707162141    0.0500
     38 H38       -13.6467   -4.9655   57.4635 H       1  ZINC001707162141    0.0600
     39 H39       -14.0939   -5.0588   55.7432 H       1  ZINC001707162141    0.0600
     40 H40       -13.3656   -3.2805   54.1644 H       1  ZINC001707162141    0.0700
     41 H41       -11.6696   -3.4811   54.6680 H       1  ZINC001707162141    0.0700
     42 H42       -13.3264   -0.9208   54.8249 H       1  ZINC001707162141    0.0600
     43 H43       -11.9556   -1.2370   53.7304 H       1  ZINC001707162141    0.0800
     44 H44        -9.7898   -0.9139   53.4550 H       1  ZINC001707162141    0.0800
     45 H45       -10.9101    0.4674   53.5279 H       1  ZINC001707162141    0.0800
     46 H46        -8.9906    1.7794   54.6237 H       1  ZINC001707162141    0.0700
     47 H47        -7.9291    0.4359   54.1371 H       1  ZINC001707162141    0.0700
     48 H48        -8.5817    0.7496   51.7798 H       1  ZINC001707162141    0.0600
     49 H49        -9.6957    2.0565   52.2480 H       1  ZINC001707162141    0.0600
     50 H50        -6.7398    2.3184   53.0415 H       1  ZINC001707162141    0.1000
     51 H51        -9.0264    4.2922   52.1977 H       1  ZINC001707162141    0.0900
     52 H52        -7.3371    4.7683   52.7644 H       1  ZINC001707162141    0.0900
     53 H53        -6.3246    3.4824   50.8264 H       1  ZINC001707162141    0.0900
     54 H54        -8.0139    3.0064   50.2598 H       1  ZINC001707162141    0.0900
     55 H55        -8.1489   -0.7982   64.3875 H       1  ZINC001707162141    0.1600
     56 H56        -9.7053    1.1175   64.6855 H       1  ZINC001707162141    0.1400
     57 H57       -11.1827    1.7545   62.7900 H       1  ZINC001707162141    0.1600
@<TRIPOS>BOND
     1     1     2    1
     2     1    29    1
     3     1    30    1
     4     1    31    1
     5     2     3    1
     6     2     4    1
     7     2    23    1
     8     4     5    1
     9     4    32    1
    10     5     6    1
    11     5    33    1
    12     5    34    1
    13     6     7    1
    14     6    14    1
    15     6     8    1
    16     8     9    1
    17     8    35    1
    18     8    36    1
    19     9    10    1
    20     9    11    1
    21     9    12    1
    22    11    37    1
    23    11    38    1
    24    11    39    1
    25    12    13    1
    26    12    40    1
    27    12    41    1
    28    13    14    1
    29    13    42    1
    30    13    43    1
    31    14    15   am
    32    15    16    2
    33    15    17    1
    34    17    18    1
    35    17    44    1
    36    17    45    1
    37    18    19    1
    38    18    46    1
    39    18    47    1
    40    19    20    1
    41    19    48    1
    42    19    49    1
    43    20    22    1
    44    20    21    1
    45    20    50    1
    46    21    22    1
    47    21    51    1
    48    21    52    1
    49    22    53    1
    50    22    54    1
    51    23    28   ar
    52    23    24   ar
    53    24    25   ar
    54    25    26   ar
    55    25    55    1
    56    26    27   ar
    57    26    56    1
    58    27    28   ar
    59    27    57    1
@<TRIPOS>SUBSTRUCTURE
     1 ZINC001707162141        1 TEMP              0 ****  ****    0 ROOT


##########                                Name:    ZINC000057429281
##########                DOCK_Rotatable_Bonds:                  10
##########                         Heavy_Atoms:                  23
##########                    Molecular_Weight:             331.295
##########                DOCK_Rotatable_Bonds:                  10
##########                       Formal_Charge:          -0.0100002
##########                     HBond_Acceptors:                   9
##########                        HBond_Donors:                   5
##########                         Heavy_Atoms:                  23
##########                          Grid_Score:          -30.868027
##########                     Grid_vdw_energy:          -27.837849
##########                      Grid_es_energy:           -3.030177
##########           Internal_energy_repulsive:            7.988549

@<TRIPOS>MOLECULE
ZINC000057429281
 39 39 1 0 0
SMALL
USER_CHARGES


@<TRIPOS>ATOM
      1 C1         -4.2638    5.9988   54.0210 C.3     1  ZINC000057429281   -0.1500
      2 C2         -4.1477    4.4736   53.9908 C.3     1  ZINC000057429281   -0.0400
      3 H3         -3.5472    4.1718   53.1326 H       1  ZINC000057429281    0.0900
      4 C4         -5.5437    3.8579   53.8784 C.3     1  ZINC000057429281   -0.1300
      5 C5         -5.7478    3.3275   52.4825 C.2     1  ZINC000057429281    0.5200
      6 O6         -6.0438    4.0854   51.5832 O.2     1  ZINC000057429281   -0.5300
      7 N7         -5.6014    2.0111   52.2337 N.am    1  ZINC000057429281   -0.7000
      8 C8         -5.8016    1.4952   50.8772 C.3     1  ZINC000057429281    0.1100
      9 C9         -4.4867    1.4947   50.1409 C.2     1  ZINC000057429281    0.5200
     10 N10        -3.3446    1.2198   50.8015 N.am    1  ZINC000057429281   -0.8500
     11 O11        -4.4563    1.7417   48.9540 O.2     1  ZINC000057429281   -0.5100
     12 C12        -6.3380    0.0887   50.9486 C.2     1  ZINC000057429281    0.5300
     13 N13        -7.1392   -0.2759   51.9691 N.am    1  ZINC000057429281   -0.8400
     14 O14        -6.0485   -0.7151   50.0878 O.2     1  ZINC000057429281   -0.5100
     15 C15        -3.4882    3.9949   55.2585 C.ar    1  ZINC000057429281   -0.0500
     16 C16        -2.2872    3.3130   55.1978 C.ar    1  ZINC000057429281   -0.1200
     17 C17        -1.6822    2.8739   56.3607 C.ar    1  ZINC000057429281   -0.0700
     18 C18        -2.2779    3.1172   57.5841 C.ar    1  ZINC000057429281   -0.1900
     19 C19        -1.6185    2.6382   58.8518 C.3     1  ZINC000057429281    0.5100
     20 F20        -1.9450    1.2953   59.0687 F       1  ZINC000057429281   -0.1800
     21 F21        -0.2306    2.7674   58.7330 F       1  ZINC000057429281   -0.1800
     22 F22        -2.0678    3.4076   59.9305 F       1  ZINC000057429281   -0.1800
     23 C23        -3.4780    3.8003   57.6448 C.ar    1  ZINC000057429281   -0.0700
     24 C24        -4.0812    4.2427   56.4823 C.ar    1  ZINC000057429281   -0.1100
     25 H25        -3.2693    6.4375   54.1012 H       1  ZINC000057429281    0.0600
     26 H26        -4.7408    6.3451   53.1041 H       1  ZINC000057429281    0.0800
     27 H27        -4.8643    6.3006   54.8792 H       1  ZINC000057429281    0.0500
     28 H28        -5.6398    3.0420   54.5947 H       1  ZINC000057429281    0.1000
     29 H29        -6.2946    4.6187   54.0913 H       1  ZINC000057429281    0.1000
     30 H30        -5.3635    1.4050   52.9528 H       1  ZINC000057429281    0.4200
     31 H31        -6.5136    2.1292   50.3489 H       1  ZINC000057429281    0.1300
     32 H32        -2.4982    1.2194   50.3277 H       1  ZINC000057429281    0.4000
     33 H33        -3.3690    1.0225   51.7510 H       1  ZINC000057429281    0.4100
     34 H34        -7.4845   -1.1813   52.0150 H       1  ZINC000057429281    0.4000
     35 H35        -7.3708    0.3670   52.6575 H       1  ZINC000057429281    0.4100
     36 H36        -1.8218    3.1229   54.2420 H       1  ZINC000057429281    0.1400
     37 H37        -0.7443    2.3406   56.3132 H       1  ZINC000057429281    0.1400
     38 H38        -3.9433    3.9908   58.6008 H       1  ZINC000057429281    0.1400
     39 H39        -5.0188    4.7765   56.5298 H       1  ZINC000057429281    0.1400
@<TRIPOS>BOND
     1     1     2    1
     2     1    25    1
     3     1    26    1
     4     1    27    1
     5     2     3    1
     6     2     4    1
     7     2    15    1
     8     4     5    1
     9     4    28    1
    10     4    29    1
    11     5     6    2
    12     5     7   am
    13     7     8    1
    14     7    30    1
    15     8     9    1
    16     8    12    1
    17     8    31    1
    18     9    10   am
    19     9    11    2
    20    10    32    1
    21    10    33    1
    22    12    13   am
    23    12    14    2
    24    13    34    1
    25    13    35    1
    26    15    24   ar
    27    15    16   ar
    28    16    17   ar
    29    16    36    1
    30    17    18   ar
    31    17    37    1
    32    18    19    1
    33    18    23   ar
    34    19    20    1
    35    19    21    1
    36    19    22    1
    37    23    24   ar
    38    23    38    1
    39    24    39    1
@<TRIPOS>SUBSTRUCTURE
     1 ZINC000057429281        1 TEMP              0 ****  ****    0 ROOT


##########                                Name:    ZINC000883773972
##########                DOCK_Rotatable_Bonds:                   4
##########                         Heavy_Atoms:                  23
##########                    Molecular_Weight:             343.447
##########                DOCK_Rotatable_Bonds:                   4
##########                       Formal_Charge:                0.01
##########                     HBond_Acceptors:                   8
##########                        HBond_Donors:                   1
##########                         Heavy_Atoms:                  23
##########                          Grid_Score:          -30.823654
##########                     Grid_vdw_energy:          -31.923573
##########                      Grid_es_energy:            1.099917
##########           Internal_energy_repulsive:            5.015028

@<TRIPOS>MOLECULE
ZINC000883773972
 48 50 1 0 0
SMALL
USER_CHARGES


@<TRIPOS>ATOM
      1 C1        -16.1350   -1.4245   53.7746 C.3     1  ZINC000883773972   -0.1700
      2 C2        -15.0133   -2.4310   53.7616 C.2     1  ZINC000883773972    0.5300
      3 O3        -15.2407   -3.5957   54.0119 O.2     1  ZINC000883773972   -0.5400
      4 N4        -13.7575   -2.0368   53.4717 N.am    1  ZINC000883773972   -0.6200
      5 C5        -12.5591   -2.8898   53.4125 C.3     1  ZINC000883773972    0.1100
      6 C6        -11.6367   -2.2684   52.3506 C.3     1  ZINC000883773972   -0.1100
      7 H7        -11.6669   -2.8224   51.4124 H       1  ZINC000883773972    0.1000
      8 C8        -10.2081   -2.1697   52.9115 C.3     1  ZINC000883773972    0.1300
      9 N9         -9.7478   -0.7989   52.6361 N.am    1  ZINC000883773972   -0.6400
     10 C10        -8.4810   -0.4080   52.3933 C.2     1  ZINC000883773972    0.7300
     11 O11        -7.5823   -1.2269   52.3895 O.2     1  ZINC000883773972   -0.5800
     12 N12        -8.2104    0.8906   52.1547 N.am    1  ZINC000883773972   -0.7400
     13 C13        -6.8332    1.3157   51.8925 C.3     1  ZINC000883773972    0.1800
     14 H14        -6.1493    0.7187   52.4959 H       1  ZINC000883773972    0.1100
     15 C15        -6.5133    1.1130   50.4144 C.3     1  ZINC000883773972   -0.1500
     16 C16        -5.0221    1.3068   50.1552 C.3     1  ZINC000883773972   -0.1000
     17 C17        -4.6502    2.7823   50.3185 C.3     1  ZINC000883773972   -0.5600
     18 H18        -5.2663    3.3893   49.6551 H       1  ZINC000883773972    0.1400
     19 C19        -3.1737    2.9799   49.9695 C.3     1  ZINC000883773972   -0.1400
     20 S20        -4.9416    3.2784   52.0417 S.o2    1  ZINC000883773972    2.4200
     21 O21        -4.1324    2.4746   52.8894 O.2     1  ZINC000883773972   -0.9200
     22 O22        -4.8488    4.6936   52.1294 O.2     1  ZINC000883773972   -0.9300
     23 C23        -6.6786    2.7929   52.2613 C.3     1  ZINC000883773972   -0.6300
     24 C24       -10.9414    0.0619   52.6778 C.3     1  ZINC000883773972    0.1100
     25 C25       -12.1335   -0.8118   52.1793 C.3     1  ZINC000883773972   -0.1100
     26 H26       -12.4098   -0.5731   51.1523 H       1  ZINC000883773972    0.1000
     27 C27       -13.3174   -0.6703   53.1460 C.3     1  ZINC000883773972    0.1100
     28 H28       -17.0695   -1.9252   54.0278 H       1  ZINC000883773972    0.0900
     29 H29       -15.9232   -0.6540   54.5159 H       1  ZINC000883773972    0.0900
     30 H30       -16.2235   -0.9665   52.7895 H       1  ZINC000883773972    0.0900
     31 H31       -12.0599   -2.9012   54.3814 H       1  ZINC000883773972    0.0800
     32 H32       -12.8353   -3.9033   53.1213 H       1  ZINC000883773972    0.0900
     33 H33       -10.2146   -2.3536   53.9859 H       1  ZINC000883773972    0.0700
     34 H34        -9.5596   -2.8896   52.4122 H       1  ZINC000883773972    0.0900
     35 H35        -8.9276    1.5438   52.1565 H       1  ZINC000883773972    0.4000
     36 H36        -6.8009    0.1038   50.1197 H       1  ZINC000883773972    0.0900
     37 H37        -7.0774    1.8339   49.8226 H       1  ZINC000883773972    0.0800
     38 H38        -4.4508    0.7090   50.8654 H       1  ZINC000883773972    0.0900
     39 H39        -4.7863    0.9844   49.1410 H       1  ZINC000883773972    0.0900
     40 H40        -3.0003    2.6743   48.9376 H       1  ZINC000883773972    0.0800
     41 H41        -2.9103    4.0311   50.0863 H       1  ZINC000883773972    0.0700
     42 H42        -2.5588    2.3750   50.6359 H       1  ZINC000883773972    0.0800
     43 H43        -7.3117    3.4006   51.6147 H       1  ZINC000883773972    0.1400
     44 H44        -6.9697    2.9396   53.3014 H       1  ZINC000883773972    0.1400
     45 H45       -11.1206    0.4040   53.6971 H       1  ZINC000883773972    0.0800
     46 H46       -10.8101    0.9161   52.0136 H       1  ZINC000883773972    0.0800
     47 H47       -14.1189   -0.1012   52.6750 H       1  ZINC000883773972    0.0900
     48 H48       -12.9952   -0.1757   54.0623 H       1  ZINC000883773972    0.0700
@<TRIPOS>BOND
     1     1     2    1
     2     1    28    1
     3     1    29    1
     4     1    30    1
     5     2     3    2
     6     2     4   am
     7     4    27    1
     8     4     5    1
     9     5     6    1
    10     5    31    1
    11     5    32    1
    12     6     7    1
    13     6    25    1
    14     6     8    1
    15     8     9    1
    16     8    33    1
    17     8    34    1
    18     9    10   am
    19     9    24    1
    20    10    11    2
    21    10    12   am
    22    12    13    1
    23    12    35    1
    24    13    14    1
    25    13    23    1
    26    13    15    1
    27    15    16    1
    28    15    36    1
    29    15    37    1
    30    16    17    1
    31    16    38    1
    32    16    39    1
    33    17    18    1
    34    17    19    1
    35    17    20    1
    36    19    40    1
    37    19    41    1
    38    19    42    1
    39    20    21    2
    40    20    22    2
    41    20    23    1
    42    23    43    1
    43    23    44    1
    44    24    25    1
    45    24    45    1
    46    24    46    1
    47    25    26    1
    48    25    27    1
    49    27    47    1
    50    27    48    1
@<TRIPOS>SUBSTRUCTURE
     1 ZINC000883773972        1 TEMP              0 ****  ****    0 ROOT


##########                                Name:    ZINC001082278299
##########                DOCK_Rotatable_Bonds:                   9
##########                         Heavy_Atoms:                  25
##########                    Molecular_Weight:              346.47
##########                DOCK_Rotatable_Bonds:                   9
##########                       Formal_Charge:           0.0200001
##########                     HBond_Acceptors:                   5
##########                        HBond_Donors:                   1
##########                         Heavy_Atoms:                  25
##########                          Grid_Score:          -30.812368
##########                     Grid_vdw_energy:          -30.302214
##########                      Grid_es_energy:           -0.510155
##########           Internal_energy_repulsive:           86.476601

@<TRIPOS>MOLECULE
ZINC001082278299
 55 57 1 0 0
SMALL
USER_CHARGES


@<TRIPOS>ATOM
      1 C1        -10.8217   -2.6802   52.5508 C.3     1  ZINC001082278299   -0.1300
      2 C2        -11.8865   -2.0734   53.4278 C.2     1  ZINC001082278299    0.0000
      3 C3        -11.7851   -0.8055   53.8163 C.2     1  ZINC001082278299   -0.2300
      4 C4        -10.6337    0.0047   53.3902 C.2     1  ZINC001082278299    0.5400
      5 O5        -10.5443    0.3740   52.2349 O.2     1  ZINC001082278299   -0.5300
      6 N6         -9.6778    0.3378   54.2800 N.am    1  ZINC001082278299   -0.7400
      7 C7         -8.5302    1.1432   53.8550 C.3     1  ZINC001082278299    0.1300
      8 C8         -8.4351    2.3959   54.7282 C.3     1  ZINC001082278299    0.1400
      9 H9         -8.1823    2.1112   55.7495 H       1  ZINC001082278299    0.0800
     10 C10        -9.7784    3.1323   54.7179 C.3     1  ZINC001082278299   -0.1300
     11 C11        -9.6372    4.4536   55.4772 C.3     1  ZINC001082278299   -0.1200
     12 C12        -8.5978    5.3352   54.7813 C.3     1  ZINC001082278299   -0.1400
     13 C13        -7.2410    4.6238   54.7924 C.3     1  ZINC001082278299    0.1100
     14 N14        -7.3982    3.2902   54.1953 N.am    1  ZINC001082278299   -0.6100
     15 C15        -6.6099    2.8973   53.1752 C.2     1  ZINC001082278299    0.5100
     16 O16        -6.7494    1.7941   52.6911 O.2     1  ZINC001082278299   -0.5100
     17 C17        -5.5549    3.8287   52.6362 C.3     1  ZINC001082278299   -0.1100
     18 C18        -4.7621    3.1240   51.5658 C.2     1  ZINC001082278299   -0.0900
     19 C19        -5.3223    2.9086   50.4127 C.2     1  ZINC001082278299   -0.1800
     20 C20        -4.6214    2.2073   49.2841 C.3     1  ZINC001082278299    0.0900
     21 O21        -3.2150    2.1596   49.5324 O.3     1  ZINC001082278299   -0.3800
     22 C22        -2.8928    1.6653   50.8383 C.3     1  ZINC001082278299    0.0600
     23 C23        -3.3511    2.7022   51.8702 C.3     1  ZINC001082278299   -0.1100
     24 C24       -13.0662   -2.9032   53.8646 C.3     1  ZINC001082278299   -0.1200
     25 C25       -12.8583   -3.8651   55.0361 C.3     1  ZINC001082278299   -0.1900
     26 C26       -13.6831   -2.5909   55.2294 C.3     1  ZINC001082278299   -0.1500
     27 H27       -10.0463   -3.1241   53.1752 H       1  ZINC001082278299    0.0800
     28 H28       -11.2658   -3.4505   51.9204 H       1  ZINC001082278299    0.0800
     29 H29       -10.3830   -1.9049   51.9227 H       1  ZINC001082278299    0.0700
     30 H30       -12.5483   -0.3707   54.4448 H       1  ZINC001082278299    0.1300
     31 H31        -9.7496    0.0442   55.2016 H       1  ZINC001082278299    0.3900
     32 H32        -7.6167    0.5576   53.9592 H       1  ZINC001082278299    0.0900
     33 H33        -8.6574    1.4356   52.8128 H       1  ZINC001082278299    0.0800
     34 H34       -10.0747    3.3341   53.6885 H       1  ZINC001082278299    0.0700
     35 H35       -10.5357    2.5145   55.2005 H       1  ZINC001082278299    0.0800
     36 H36       -10.5980    4.9681   55.4924 H       1  ZINC001082278299    0.0700
     37 H37        -9.3169    4.2525   56.4995 H       1  ZINC001082278299    0.0700
     38 H38        -8.9052    5.5163   53.7514 H       1  ZINC001082278299    0.0700
     39 H39        -8.5147    6.2853   55.3091 H       1  ZINC001082278299    0.0800
     40 H40        -6.5209    5.2013   54.2127 H       1  ZINC001082278299    0.0900
     41 H41        -6.8897    4.5230   55.8192 H       1  ZINC001082278299    0.0700
     42 H42        -6.0324    4.7122   52.2126 H       1  ZINC001082278299    0.1000
     43 H43        -4.8877    4.1285   53.4444 H       1  ZINC001082278299    0.1000
     44 H44        -6.3359    3.2484   50.2595 H       1  ZINC001082278299    0.1100
     45 H45        -5.0072    1.1917   49.1947 H       1  ZINC001082278299    0.0600
     46 H46        -4.8062    2.7450   48.3542 H       1  ZINC001082278299    0.1000
     47 H47        -3.4065    0.7193   51.0098 H       1  ZINC001082278299    0.0600
     48 H48        -1.8159    1.5189   50.9201 H       1  ZINC001082278299    0.1000
     49 H49        -2.6905    3.5685   51.8323 H       1  ZINC001082278299    0.0800
     50 H50        -3.3157    2.2626   52.8670 H       1  ZINC001082278299    0.0800
     51 H51       -13.7401   -3.2182   53.0678 H       1  ZINC001082278299    0.1300
     52 H52       -13.3954   -4.8131   55.0104 H       1  ZINC001082278299    0.1000
     53 H53       -11.8683   -3.8975   55.4911 H       1  ZINC001082278299    0.1000
     54 H54       -13.2356   -1.7852   55.8114 H       1  ZINC001082278299    0.0900
     55 H55       -14.7627   -2.7007   55.3307 H       1  ZINC001082278299    0.1000
@<TRIPOS>BOND
     1     1     2    1
     2     1    27    1
     3     1    28    1
     4     1    29    1
     5     2     3    2
     6     2    24    1
     7     3     4    1
     8     3    30    1
     9     4     5    2
    10     4     6   am
    11     6     7    1
    12     6    31    1
    13     7     8    1
    14     7    32    1
    15     7    33    1
    16     8     9    1
    17     8    14    1
    18     8    10    1
    19    10    11    1
    20    10    34    1
    21    10    35    1
    22    11    12    1
    23    11    36    1
    24    11    37    1
    25    12    13    1
    26    12    38    1
    27    12    39    1
    28    13    14    1
    29    13    40    1
    30    13    41    1
    31    14    15   am
    32    15    16    2
    33    15    17    1
    34    17    18    1
    35    17    42    1
    36    17    43    1
    37    18    23    1
    38    18    19    2
    39    19    20    1
    40    19    44    1
    41    20    21    1
    42    20    45    1
    43    20    46    1
    44    21    22    1
    45    22    23    1
    46    22    47    1
    47    22    48    1
    48    23    49    1
    49    23    50    1
    50    24    26    1
    51    24    25    1
    52    24    51    1
    53    25    26    1
    54    25    52    1
    55    25    53    1
    56    26    54    1
    57    26    55    1
@<TRIPOS>SUBSTRUCTURE
     1 ZINC001082278299        1 TEMP              0 ****  ****    0 ROOT


##########                                Name:    ZINC000326056918
##########                DOCK_Rotatable_Bonds:                   6
##########                         Heavy_Atoms:                  24
##########                    Molecular_Weight:             408.326
##########                DOCK_Rotatable_Bonds:                   6
##########                       Formal_Charge:         -0.00999978
##########                     HBond_Acceptors:                   9
##########                        HBond_Donors:                   0
##########                         Heavy_Atoms:                  24
##########                          Grid_Score:          -30.808453
##########                     Grid_vdw_energy:          -30.318707
##########                      Grid_es_energy:           -0.489745
##########           Internal_energy_repulsive:           22.681562

@<TRIPOS>MOLECULE
ZINC000326056918
 39 40 1 0 0
SMALL
USER_CHARGES


@<TRIPOS>ATOM
      1 C1         -9.3792    1.5611   55.2059 C.3     1  ZINC000326056918    0.0400
      2 O2         -9.7772    0.1851   54.9683 O.3     1  ZINC000326056918   -0.3500
      3 C3        -10.8547   -0.0135   54.1814 C.2     1  ZINC000326056918    0.5000
      4 O4        -11.4159    0.9355   53.6677 O.2     1  ZINC000326056918   -0.4300
      5 C5        -11.3487   -1.3713   53.9457 C.2     1  ZINC000326056918   -0.1600
      6 C6        -12.2364   -2.0418   54.7409 C.2     1  ZINC000326056918   -0.6200
      7 S7        -12.9365   -1.3548   56.2047 S.o2    1  ZINC000326056918    2.6900
      8 O8        -12.4976   -0.0046   56.2639 O.2     1  ZINC000326056918   -0.9100
      9 O9        -14.3079   -1.7269   56.2065 O.2     1  ZINC000326056918   -0.9400
     10 N10       -12.2399   -2.1297   57.4917 N.am    1  ZINC000326056918   -0.9900
     11 C11       -13.0740   -2.8787   58.4348 C.3     1  ZINC000326056918    0.0900
     12 C12       -10.7893   -2.0663   57.6873 C.3     1  ZINC000326056918    0.1500
     13 C13       -10.4906   -1.4891   59.0469 C.ar    1  ZINC000326056918   -0.0900
     14 C14       -11.0995   -0.3151   59.4479 C.ar    1  ZINC000326056918   -0.0800
     15 C15       -10.8257    0.2153   60.6948 C.ar    1  ZINC000326056918   -0.1100
     16 C16        -9.9421   -0.4290   61.5421 C.ar    1  ZINC000326056918   -0.0200
     17 Cl17       -9.5988    0.2369   63.1080 Cl      1  ZINC000326056918   -0.0600
     18 C18        -9.3326   -1.6046   61.1413 C.ar    1  ZINC000326056918   -0.1100
     19 C19        -9.6109   -2.1375   59.8958 C.ar    1  ZINC000326056918   -0.0300
     20 Cl20       -8.8469   -3.6129   59.3922 Cl      1  ZINC000326056918   -0.0100
     21 C21       -12.5287   -3.3045   54.2843 C.2     1  ZINC000326056918   -0.0400
     22 C22       -13.4834   -4.2230   55.0025 C.3     1  ZINC000326056918   -0.1100
     23 C23       -11.9038   -3.6588   53.1548 C.2     1  ZINC000326056918   -0.2600
     24 S24       -10.9015   -2.3987   52.5906 S.3     1  ZINC000326056918    0.3100
     25 H25        -8.5018    1.5791   55.8524 H       1  ZINC000326056918    0.1100
     26 H26        -9.1404    2.0396   54.2561 H       1  ZINC000326056918    0.0700
     27 H27       -10.1966    2.0977   55.6877 H       1  ZINC000326056918    0.0700
     28 H28       -13.2414   -3.8854   58.0516 H       1  ZINC000326056918    0.0600
     29 H29       -12.5700   -2.9362   59.3994 H       1  ZINC000326056918    0.0700
     30 H30       -14.0316   -2.3718   58.5548 H       1  ZINC000326056918    0.0900
     31 H31       -10.3692   -3.0697   57.6183 H       1  ZINC000326056918    0.1100
     32 H32       -10.3464   -1.4333   56.9184 H       1  ZINC000326056918    0.0900
     33 H33       -11.7894    0.1883   58.7868 H       1  ZINC000326056918    0.1400
     34 H34       -11.3014    1.1332   61.0075 H       1  ZINC000326056918    0.1400
     35 H35        -8.6427   -2.1081   61.8024 H       1  ZINC000326056918    0.1500
     36 H36       -14.5062   -3.9838   54.7112 H       1  ZINC000326056918    0.0900
     37 H37       -13.2623   -5.2568   54.7366 H       1  ZINC000326056918    0.0700
     38 H38       -13.3723   -4.0930   56.0790 H       1  ZINC000326056918    0.0900
     39 H39       -12.0214   -4.6137   52.6640 H       1  ZINC000326056918    0.1800
@<TRIPOS>BOND
     1     1     2    1
     2     1    25    1
     3     1    26    1
     4     1    27    1
     5     2     3    1
     6     3     4    2
     7     3     5    1
     8     5    24    1
     9     5     6    2
    10     6     7    1
    11     6    21    1
    12     7     8    2
    13     7     9    2
    14     7    10   am
    15    10    11    1
    16    10    12    1
    17    11    28    1
    18    11    29    1
    19    11    30    1
    20    12    13    1
    21    12    31    1
    22    12    32    1
    23    13    19   ar
    24    13    14   ar
    25    14    15   ar
    26    14    33    1
    27    15    16   ar
    28    15    34    1
    29    16    17    1
    30    16    18   ar
    31    18    19   ar
    32    18    35    1
    33    19    20    1
    34    21    22    1
    35    21    23    2
    36    22    36    1
    37    22    37    1
    38    22    38    1
    39    23    24    1
    40    23    39    1
@<TRIPOS>SUBSTRUCTURE
     1 ZINC000326056918        1 TEMP              0 ****  ****    0 ROOT


##########                                Name:    ZINC000763800048
##########                DOCK_Rotatable_Bonds:                   8
##########                         Heavy_Atoms:                  23
##########                    Molecular_Weight:             329.783
##########                DOCK_Rotatable_Bonds:                   8
##########                       Formal_Charge:           0.0199994
##########                     HBond_Acceptors:                   5
##########                        HBond_Donors:                   1
##########                         Heavy_Atoms:                  23
##########                          Grid_Score:          -30.773748
##########                     Grid_vdw_energy:          -30.269224
##########                      Grid_es_energy:           -0.504524
##########           Internal_energy_repulsive:            9.240904

@<TRIPOS>MOLECULE
ZINC000763800048
 39 40 1 0 0
SMALL
USER_CHARGES


@<TRIPOS>ATOM
      1 C1         -7.3935    3.8555   51.3904 C.3     1  ZINC000763800048    0.0400
      2 O2         -8.1205    3.0381   52.3453 O.3     1  ZINC000763800048   -0.3600
      3 C3         -7.4206    2.5350   53.3742 C.2     1  ZINC000763800048    0.4600
      4 O4         -6.2443    2.7875   53.4856 O.2     1  ZINC000763800048   -0.4900
      5 C5         -8.1019    1.6552   54.3903 C.3     1  ZINC000763800048   -0.0700
      6 C6         -8.6980    0.4567   53.6979 C.ar    1  ZINC000763800048   -0.0600
      7 C7         -8.0245   -0.1400   52.6480 C.ar    1  ZINC000763800048   -0.1200
      8 C8         -8.5680   -1.2401   52.0098 C.ar    1  ZINC000763800048   -0.1000
      9 C9         -9.7855   -1.7465   52.4198 C.ar    1  ZINC000763800048   -0.1100
     10 C10       -10.4645   -1.1496   53.4746 C.ar    1  ZINC000763800048    0.1500
     11 N11       -11.6974   -1.6598   53.8924 N.am    1  ZINC000763800048   -0.6700
     12 C12       -11.8242   -2.9724   54.1706 C.2     1  ZINC000763800048    0.5500
     13 O13       -10.8654   -3.7137   54.0582 O.2     1  ZINC000763800048   -0.5200
     14 C14       -13.1146   -3.5064   54.6079 C.2     1  ZINC000763800048   -0.2100
     15 C15       -13.3194   -3.7936   55.9096 C.2     1  ZINC000763800048   -0.0100
     16 C16       -12.2447   -3.5716   56.8900 C.ar    1  ZINC000763800048   -0.0800
     17 C17       -11.4161   -4.6302   57.2761 C.ar    1  ZINC000763800048   -0.0900
     18 C18       -10.4115   -4.4150   58.1949 C.ar    1  ZINC000763800048   -0.1100
     19 C19       -10.2218   -3.1537   58.7362 C.ar    1  ZINC000763800048   -0.0200
     20 Cl20       -8.9544   -2.8921   59.8932 Cl      1  ZINC000763800048   -0.0600
     21 C21       -11.0386   -2.1004   58.3582 C.ar    1  ZINC000763800048   -0.1100
     22 C22       -12.0434   -2.2997   57.4360 C.ar    1  ZINC000763800048   -0.0800
     23 C23        -9.9137   -0.0480   54.1164 C.ar    1  ZINC000763800048   -0.1300
     24 H24        -8.0752    4.1977   50.6118 H       1  ZINC000763800048    0.1000
     25 H25        -6.9647    4.7172   51.9020 H       1  ZINC000763800048    0.0600
     26 H26        -6.5950    3.2655   50.9407 H       1  ZINC000763800048    0.0600
     27 H27        -7.3734    1.3224   55.1296 H       1  ZINC000763800048    0.1200
     28 H28        -8.8922    2.2182   54.8868 H       1  ZINC000763800048    0.1200
     29 H29        -7.0722    0.2540   52.3254 H       1  ZINC000763800048    0.1200
     30 H30        -8.0398   -1.7034   51.1896 H       1  ZINC000763800048    0.1300
     31 H31       -10.2095   -2.6053   51.9209 H       1  ZINC000763800048    0.1400
     32 H32       -12.4616   -1.0691   53.9819 H       1  ZINC000763800048    0.4100
     33 H33       -13.9030   -3.6705   53.8882 H       1  ZINC000763800048    0.1300
     34 H34       -14.2722   -4.1865   56.2326 H       1  ZINC000763800048    0.1400
     35 H35       -11.5632   -5.6141   56.8554 H       1  ZINC000763800048    0.1400
     36 H36        -9.7709   -5.2315   58.4938 H       1  ZINC000763800048    0.1400
     37 H37       -10.8849   -1.1199   58.7842 H       1  ZINC000763800048    0.1400
     38 H38       -12.6791   -1.4776   57.1420 H       1  ZINC000763800048    0.1400
     39 H39       -10.4388    0.4180   54.9371 H       1  ZINC000763800048    0.1300
@<TRIPOS>BOND
     1     1     2    1
     2     1    24    1
     3     1    25    1
     4     1    26    1
     5     2     3    1
     6     3     4    2
     7     3     5    1
     8     5     6    1
     9     5    27    1
    10     5    28    1
    11     6    23   ar
    12     6     7   ar
    13     7     8   ar
    14     7    29    1
    15     8     9   ar
    16     8    30    1
    17     9    10   ar
    18     9    31    1
    19    10    11    1
    20    10    23   ar
    21    11    12   am
    22    11    32    1
    23    12    13    2
    24    12    14    1
    25    14    15    2
    26    14    33    1
    27    15    16    1
    28    15    34    1
    29    16    22   ar
    30    16    17   ar
    31    17    18   ar
    32    17    35    1
    33    18    19   ar
    34    18    36    1
    35    19    20    1
    36    19    21   ar
    37    21    22   ar
    38    21    37    1
    39    22    38    1
    40    23    39    1
@<TRIPOS>SUBSTRUCTURE
     1 ZINC000763800048        1 TEMP              0 ****  ****    0 ROOT


##########                                Name:    ZINC000080099940
##########                DOCK_Rotatable_Bonds:                   4
##########                         Heavy_Atoms:                  26
##########                    Molecular_Weight:             343.388
##########                DOCK_Rotatable_Bonds:                   4
##########                       Formal_Charge:        -3.42727e-07
##########                     HBond_Acceptors:                   6
##########                        HBond_Donors:                   1
##########                         Heavy_Atoms:                  26
##########                          Grid_Score:          -30.699938
##########                     Grid_vdw_energy:          -30.003252
##########                      Grid_es_energy:           -0.696686
##########           Internal_energy_repulsive:            2.761028

@<TRIPOS>MOLECULE
ZINC000080099940
 43 46 1 0 0
SMALL
USER_CHARGES


@<TRIPOS>ATOM
      1 C1        -11.3801   -1.4169   53.5440 C.3     1  ZINC000080099940   -0.1100
      2 C2        -10.2067   -0.4735   53.4780 C.2     1  ZINC000080099940   -0.0700
      3 C3         -9.2612   -0.6258   52.5123 C.2     1  ZINC000080099940   -0.0900
      4 C4         -8.1703    0.2665   52.4662 C.2     1  ZINC000080099940    0.2300
      5 N5         -7.1266    0.3522   51.6548 N.2     1  ZINC000080099940   -0.4800
      6 C6         -6.3604    1.3880   52.0320 C.2     1  ZINC000080099940    0.1000
      7 C7         -5.1000    1.8197   51.3791 C.ar    1  ZINC000080099940   -0.0200
      8 C8         -5.0050    1.8382   49.9885 C.ar    1  ZINC000080099940   -0.0800
      9 C9         -3.8329    2.2400   49.3839 C.ar    1  ZINC000080099940   -0.1200
     10 C10        -2.7463    2.6262   50.1599 C.ar    1  ZINC000080099940    0.1500
     11 N11        -1.5590    3.0327   49.5449 N.am    1  ZINC000080099940   -0.6500
     12 C12        -0.4832    2.2209   49.5538 C.2     1  ZINC000080099940    0.5700
     13 O13        -0.5455    1.1356   50.0965 O.2     1  ZINC000080099940   -0.5000
     14 C14         0.7775    2.6525   48.9007 C.ar    1  ZINC000080099940    0.1300
     15 C15         1.9504    1.9151   49.0658 C.ar    1  ZINC000080099940   -0.1700
     16 C16         3.1021    2.3618   48.4331 C.ar    1  ZINC000080099940    0.1600
     17 N17         3.0495    3.4615   47.7015 N.ar    1  ZINC000080099940   -0.5000
     18 C18         1.9235    4.1352   47.5661 C.ar    1  ZINC000080099940    0.3200
     19 C19         1.9148    5.3831   46.7213 C.3     1  ZINC000080099940   -0.0900
     20 N20         0.8069    3.7467   48.1430 N.ar    1  ZINC000080099940   -0.5000
     21 C21        -2.8390    2.6088   51.5466 C.ar    1  ZINC000080099940   -0.1400
     22 C22        -4.0109    2.2127   52.1553 C.ar    1  ZINC000080099940   -0.0700
     23 C23        -6.9391    1.9754   53.1166 C.2     1  ZINC000080099940   -0.0900
     24 N24        -8.0786    1.2728   53.3934 N.pl3   1  ZINC000080099940   -0.3600
     25 C25        -9.0352    1.4138   54.3573 C.2     1  ZINC000080099940    0.0600
     26 C26       -10.0877    0.5708   54.4100 C.2     1  ZINC000080099940   -0.1400
     27 H27       -12.0270   -1.1345   54.3747 H       1  ZINC000080099940    0.0700
     28 H28       -11.9420   -1.3637   52.6116 H       1  ZINC000080099940    0.0800
     29 H29       -11.0199   -2.4347   53.6937 H       1  ZINC000080099940    0.0800
     30 H30        -9.3448   -1.4227   51.7880 H       1  ZINC000080099940    0.1500
     31 H31        -5.8488    1.5376   49.3852 H       1  ZINC000080099940    0.1300
     32 H32        -3.7590    2.2546   48.3066 H       1  ZINC000080099940    0.1400
     33 H33        -1.5093    3.8990   49.1115 H       1  ZINC000080099940    0.4200
     34 H34         1.9619    1.0203   49.6705 H       1  ZINC000080099940    0.1600
     35 H35         4.0294    1.8180   48.5373 H       1  ZINC000080099940    0.1800
     36 H36         1.6760    5.1223   45.6903 H       1  ZINC000080099940    0.0900
     37 H37         1.1650    6.0756   47.1039 H       1  ZINC000080099940    0.0900
     38 H38         2.8971    5.8541   46.7588 H       1  ZINC000080099940    0.0900
     39 H39        -1.9935    2.9093   52.1477 H       1  ZINC000080099940    0.1300
     40 H40        -4.0826    2.1998   53.2329 H       1  ZINC000080099940    0.1400
     41 H41        -6.5674    2.8340   53.6561 H       1  ZINC000080099940    0.1900
     42 H42        -8.9512    2.2105   55.0815 H       1  ZINC000080099940    0.1700
     43 H43       -10.8373    0.6942   55.1776 H       1  ZINC000080099940    0.1500
@<TRIPOS>BOND
     1     1     2    1
     2     1    27    1
     3     1    28    1
     4     1    29    1
     5     2    26    1
     6     2     3    2
     7     3     4    1
     8     3    30    1
     9     4    24    1
    10     4     5    2
    11     5     6    1
    12     6     7    1
    13     6    23    2
    14     7    22   ar
    15     7     8   ar
    16     8     9   ar
    17     8    31    1
    18     9    10   ar
    19     9    32    1
    20    10    11    1
    21    10    21   ar
    22    11    12   am
    23    11    33    1
    24    12    13    2
    25    12    14    1
    26    14    20   ar
    27    14    15   ar
    28    15    16   ar
    29    15    34    1
    30    16    17   ar
    31    16    35    1
    32    17    18   ar
    33    18    19    1
    34    18    20   ar
    35    19    36    1
    36    19    37    1
    37    19    38    1
    38    21    22   ar
    39    21    39    1
    40    22    40    1
    41    23    24    1
    42    23    41    1
    43    24    25    1
    44    25    26    2
    45    25    42    1
    46    26    43    1
@<TRIPOS>SUBSTRUCTURE
     1 ZINC000080099940        1 TEMP              0 ****  ****    0 ROOT


##########                                Name:    ZINC000446721380
##########                DOCK_Rotatable_Bonds:                   8
##########                         Heavy_Atoms:                  26
##########                    Molecular_Weight:             419.318
##########                DOCK_Rotatable_Bonds:                   8
##########                       Formal_Charge:           0.0199992
##########                     HBond_Acceptors:                   5
##########                        HBond_Donors:                   2
##########                         Heavy_Atoms:                  26
##########                          Grid_Score:          -30.694990
##########                     Grid_vdw_energy:          -27.936567
##########                      Grid_es_energy:           -2.758423
##########           Internal_energy_repulsive:           15.775072

@<TRIPOS>MOLECULE
ZINC000446721380
 49 51 1 0 0
SMALL
USER_CHARGES


@<TRIPOS>ATOM
      1 C1         -6.3776    0.2559   50.5293 C.3     1  ZINC000446721380   -0.1200
      2 C2         -5.2401    1.2407   50.6163 C.ar    1  ZINC000446721380   -0.0300
      3 C3         -4.0469    0.9764   49.9701 C.ar    1  ZINC000446721380   -0.1600
      4 C4         -3.0013    1.8780   50.0480 C.ar    1  ZINC000446721380   -0.0500
      5 C5         -3.1467    3.0453   50.7719 C.ar    1  ZINC000446721380   -0.1500
      6 C6         -2.0070    4.0276   50.8560 C.3     1  ZINC000446721380    0.1900
      7 N7         -0.9989    3.6934   49.8470 N.am    1  ZINC000446721380   -0.7300
      8 C8          0.1918    3.1879   50.2256 C.2     1  ZINC000446721380    0.7100
      9 O9          0.4286    3.0078   51.4045 O.2     1  ZINC000446721380   -0.5700
     10 N10         1.1198    2.8820   49.2973 N.am    1  ZINC000446721380   -0.6900
     11 C11         2.3565    2.3569   49.6906 C.ar    1  ZINC000446721380    0.2000
     12 C12         2.4111    1.1763   50.4185 C.ar    1  ZINC000446721380   -0.1200
     13 C13         3.6332    0.6603   50.8048 C.ar    1  ZINC000446721380   -0.0800
     14 C14         4.8013    1.3183   50.4673 C.ar    1  ZINC000446721380   -0.1300
     15 C15         4.7509    2.4951   49.7425 C.ar    1  ZINC000446721380   -0.0700
     16 C16         3.5324    3.0135   49.3481 C.ar    1  ZINC000446721380   -0.1300
     17 Br17        3.4642    4.6222   48.3566 Br      1  ZINC000446721380   -0.0500
     18 C18        -4.3434    3.3128   51.4214 C.ar    1  ZINC000446721380    0.1500
     19 O19        -4.4891    4.4608   52.1340 O.3     1  ZINC000446721380   -0.3100
     20 C20        -5.0749    4.3484   53.4325 C.3     1  ZINC000446721380    0.0700
     21 C21        -4.1433    3.5474   54.3446 C.3     1  ZINC000446721380   -0.1200
     22 H22        -4.0746    2.5139   54.0051 H       1  ZINC000446721380    0.1000
     23 C23        -4.6392    3.6046   55.8101 C.3     1  ZINC000446721380   -0.1500
     24 C24        -3.3123    3.7613   56.5958 C.3     1  ZINC000446721380    0.0500
     25 O25        -2.5179    4.6182   55.7478 O.3     1  ZINC000446721380   -0.3800
     26 C26        -2.7455    4.1944   54.3899 C.3     1  ZINC000446721380    0.0500
     27 C27        -5.3926    2.4095   51.3371 C.ar    1  ZINC000446721380   -0.2100
     28 H28        -6.9983    0.4932   49.6654 H       1  ZINC000446721380    0.0800
     29 H29        -5.9777   -0.7526   50.4235 H       1  ZINC000446721380    0.0700
     30 H30        -6.9793    0.3149   51.4363 H       1  ZINC000446721380    0.0700
     31 H31        -3.9310    0.0641   49.4038 H       1  ZINC000446721380    0.1300
     32 H32        -2.0700    1.6691   49.5425 H       1  ZINC000446721380    0.1300
     33 H33        -2.3817    5.0351   50.6754 H       1  ZINC000446721380    0.0800
     34 H34        -1.5581    3.9792   51.8481 H       1  ZINC000446721380    0.0800
     35 H35        -1.1883    3.8359   48.9064 H       1  ZINC000446721380    0.4000
     36 H36         0.9308    3.0256   48.3568 H       1  ZINC000446721380    0.4100
     37 H37         1.4992    0.6617   50.6830 H       1  ZINC000446721380    0.1500
     38 H38         3.6760   -0.2581   51.3716 H       1  ZINC000446721380    0.1300
     39 H39         5.7551    0.9128   50.7705 H       1  ZINC000446721380    0.1300
     40 H40         5.6651    3.0072   49.4809 H       1  ZINC000446721380    0.1400
     41 H41        -5.2252    5.3438   53.8507 H       1  ZINC000446721380    0.0700
     42 H42        -6.0349    3.8380   53.3552 H       1  ZINC000446721380    0.0700
     43 H43        -5.2886    4.4658   55.9677 H       1  ZINC000446721380    0.0800
     44 H44        -5.1473    2.6804   56.0852 H       1  ZINC000446721380    0.0900
     45 H45        -3.4913    4.2355   57.5607 H       1  ZINC000446721380    0.1000
     46 H46        -2.8270    2.7940   56.7264 H       1  ZINC000446721380    0.0600
     47 H47        -1.9879    3.4678   54.0964 H       1  ZINC000446721380    0.0600
     48 H48        -2.7141    5.0558   53.7226 H       1  ZINC000446721380    0.0900
     49 H49        -6.3250    2.6155   51.8417 H       1  ZINC000446721380    0.1300
@<TRIPOS>BOND
     1     1     2    1
     2     1    28    1
     3     1    29    1
     4     1    30    1
     5     2    27   ar
     6     2     3   ar
     7     3     4   ar
     8     3    31    1
     9     4     5   ar
    10     4    32    1
    11     5     6    1
    12     5    18   ar
    13     6     7    1
    14     6    33    1
    15     6    34    1
    16     7     8   am
    17     7    35    1
    18     8     9    2
    19     8    10   am
    20    10    11    1
    21    10    36    1
    22    11    16   ar
    23    11    12   ar
    24    12    13   ar
    25    12    37    1
    26    13    14   ar
    27    13    38    1
    28    14    15   ar
    29    14    39    1
    30    15    16   ar
    31    15    40    1
    32    16    17    1
    33    18    19    1
    34    18    27   ar
    35    19    20    1
    36    20    21    1
    37    20    41    1
    38    20    42    1
    39    21    22    1
    40    21    26    1
    41    21    23    1
    42    23    24    1
    43    23    43    1
    44    23    44    1
    45    24    25    1
    46    24    45    1
    47    24    46    1
    48    25    26    1
    49    26    47    1
    50    26    48    1
    51    27    49    1
@<TRIPOS>SUBSTRUCTURE
     1 ZINC000446721380        1 TEMP              0 ****  ****    0 ROOT


##########                                Name:    ZINC001098311495
##########                DOCK_Rotatable_Bonds:                   8
##########                         Heavy_Atoms:                  24
##########                    Molecular_Weight:             328.454
##########                DOCK_Rotatable_Bonds:                   8
##########                       Formal_Charge:          0.00999987
##########                     HBond_Acceptors:                   4
##########                        HBond_Donors:                   1
##########                         Heavy_Atoms:                  24
##########                          Grid_Score:          -30.682192
##########                     Grid_vdw_energy:          -29.648064
##########                      Grid_es_energy:           -1.034128
##########           Internal_energy_repulsive:           14.461578

@<TRIPOS>MOLECULE
ZINC001098311495
 52 54 1 0 0
SMALL
USER_CHARGES


@<TRIPOS>ATOM
      1 C1        -12.3053   -2.9748   53.9159 C.3     1  ZINC001098311495   -0.1500
      2 C2        -11.2417   -3.0679   55.0119 C.3     1  ZINC001098311495    0.0500
      3 O3        -11.8360   -2.7759   56.2782 O.3     1  ZINC001098311495   -0.2800
      4 C4        -11.0200   -2.8005   57.3617 C.ar    1  ZINC001098311495    0.1900
      5 C5        -10.6690   -4.0100   57.9420 C.ar    1  ZINC001098311495   -0.2200
      6 C6         -9.8435   -4.0331   59.0489 C.ar    1  ZINC001098311495   -0.0500
      7 C7         -9.3550   -2.8523   59.5833 C.ar    1  ZINC001098311495   -0.1700
      8 C8         -9.6887   -1.6415   59.0156 C.ar    1  ZINC001098311495   -0.0500
      9 C9        -10.5231   -1.6037   57.8961 C.ar    1  ZINC001098311495   -0.1800
     10 C10       -10.8843   -0.3111   57.2833 C.2     1  ZINC001098311495    0.5600
     11 O11       -11.8751    0.2846   57.6600 O.2     1  ZINC001098311495   -0.5200
     12 N12       -10.1160    0.2094   56.3059 N.am    1  ZINC001098311495   -0.7200
     13 C13       -10.4737    1.4938   55.6987 C.3     1  ZINC001098311495    0.1600
     14 H14       -10.9426    2.1473   56.4342 H       1  ZINC001098311495    0.1000
     15 C15       -11.4062    1.2801   54.4812 C.3     1  ZINC001098311495   -0.1200
     16 C16       -10.5885    1.8627   53.2892 C.3     1  ZINC001098311495    0.0500
     17 H17       -10.8799    1.5081   52.3006 H       1  ZINC001098311495    0.1100
     18 C18       -10.6056    3.4092   53.4815 C.3     1  ZINC001098311495   -0.1500
     19 C19        -9.6691    3.6336   54.6939 C.3     1  ZINC001098311495   -0.1500
     20 C20        -9.2171    2.1769   55.0797 C.3     1  ZINC001098311495    0.0400
     21 H21        -8.2979    2.1092   55.6615 H       1  ZINC001098311495    0.1200
     22 N22        -9.1818    1.5348   53.7172 N.3     1  ZINC001098311495   -0.4900
     23 C23        -8.1994    2.1967   52.8486 C.3     1  ZINC001098311495    0.0600
     24 C24        -7.2729    1.1641   52.2600 C.2     1  ZINC001098311495   -0.1600
     25 C25        -6.5842    1.4414   51.1806 C.2     1  ZINC001098311495   -0.1200
     26 C26        -6.7184    2.7930   50.5276 C.3     1  ZINC001098311495   -0.1200
     27 C27        -5.6578    0.4088   50.5920 C.3     1  ZINC001098311495   -0.1200
     28 H28       -13.0997   -3.6930   54.1187 H       1  ZINC001098311495    0.0700
     29 H29       -12.7216   -1.9676   53.8983 H       1  ZINC001098311495    0.0700
     30 H30       -11.8520   -3.1976   52.9499 H       1  ZINC001098311495    0.0800
     31 H31       -10.4473   -2.3498   54.8091 H       1  ZINC001098311495    0.0600
     32 H32       -10.8254   -4.0751   55.0295 H       1  ZINC001098311495    0.0600
     33 H33       -11.0455   -4.9349   57.5308 H       1  ZINC001098311495    0.1300
     34 H34        -9.5768   -4.9772   59.5002 H       1  ZINC001098311495    0.1300
     35 H35        -8.7095   -2.8805   60.4488 H       1  ZINC001098311495    0.1300
     36 H36        -9.3058   -0.7233   59.4358 H       1  ZINC001098311495    0.1300
     37 H37        -9.3262   -0.2664   56.0046 H       1  ZINC001098311495    0.4000
     38 H38       -12.3390    1.8289   54.6113 H       1  ZINC001098311495    0.0800
     39 H39       -11.6023    0.2187   54.3296 H       1  ZINC001098311495    0.0800
     40 H40       -10.2142    3.9104   52.5962 H       1  ZINC001098311495    0.0700
     41 H41       -11.6141    3.7568   53.7061 H       1  ZINC001098311495    0.0800
     42 H42        -8.8134    4.2461   54.4095 H       1  ZINC001098311495    0.0700
     43 H43       -10.2132    4.0925   55.5194 H       1  ZINC001098311495    0.0800
     44 H44        -7.6212    2.9123   53.4333 H       1  ZINC001098311495    0.0500
     45 H45        -8.7185    2.7193   52.0451 H       1  ZINC001098311495    0.0800
     46 H46        -7.1766    0.1956   52.7279 H       1  ZINC001098311495    0.1100
     47 H47        -7.5188    2.7615   49.7883 H       1  ZINC001098311495    0.0700
     48 H48        -5.7807    3.0542   50.0371 H       1  ZINC001098311495    0.0600
     49 H49        -6.9528    3.5408   51.2852 H       1  ZINC001098311495    0.0600
     50 H50        -4.6920    0.4584   51.0948 H       1  ZINC001098311495    0.0700
     51 H51        -6.0872   -0.5838   50.7271 H       1  ZINC001098311495    0.0600
     52 H52        -5.5240    0.6051   49.5281 H       1  ZINC001098311495    0.0600
@<TRIPOS>BOND
     1     1     2    1
     2     1    28    1
     3     1    29    1
     4     1    30    1
     5     2     3    1
     6     2    31    1
     7     2    32    1
     8     3     4    1
     9     4     9   ar
    10     4     5   ar
    11     5     6   ar
    12     5    33    1
    13     6     7   ar
    14     6    34    1
    15     7     8   ar
    16     7    35    1
    17     8     9   ar
    18     8    36    1
    19     9    10    1
    20    10    11    2
    21    10    12   am
    22    12    13    1
    23    12    37    1
    24    13    14    1
    25    13    20    1
    26    13    15    1
    27    15    16    1
    28    15    38    1
    29    15    39    1
    30    16    17    1
    31    16    22    1
    32    16    18    1
    33    18    19    1
    34    18    40    1
    35    18    41    1
    36    19    20    1
    37    19    42    1
    38    19    43    1
    39    20    21    1
    40    20    22    1
    41    22    23    1
    42    23    24    1
    43    23    44    1
    44    23    45    1
    45    24    25    2
    46    24    46    1
    47    25    26    1
    48    25    27    1
    49    26    47    1
    50    26    48    1
    51    26    49    1
    52    27    50    1
    53    27    51    1
    54    27    52    1
@<TRIPOS>SUBSTRUCTURE
     1 ZINC001098311495        1 TEMP              0 ****  ****    0 ROOT


##########                                Name:    ZINC001060620810
##########                DOCK_Rotatable_Bonds:                   5
##########                         Heavy_Atoms:                  24
##########                    Molecular_Weight:             332.421
##########                DOCK_Rotatable_Bonds:                   5
##########                       Formal_Charge:           0.0299998
##########                     HBond_Acceptors:                   6
##########                        HBond_Donors:                   2
##########                         Heavy_Atoms:                  24
##########                          Grid_Score:          -30.654055
##########                     Grid_vdw_energy:          -27.435343
##########                      Grid_es_energy:           -3.218711
##########           Internal_energy_repulsive:            9.237553

@<TRIPOS>MOLECULE
ZINC001060620810
 49 52 1 0 0
SMALL
USER_CHARGES


@<TRIPOS>ATOM
      1 O1         -7.0796    3.4998   51.3865 O.2     1  ZINC001060620810   -0.5400
      2 C2         -6.3952    2.7398   52.0384 C.2     1  ZINC001060620810    0.5500
      3 N3         -6.8966    2.1671   53.1507 N.am    1  ZINC001060620810   -0.7200
      4 C4         -8.2688    2.4612   53.5712 C.3     1  ZINC001060620810    0.1400
      5 C5         -9.0892    1.1698   53.5735 C.3     1  ZINC001060620810   -0.1300
      6 C6        -10.5223    1.4768   54.0127 C.3     1  ZINC001060620810   -0.1300
      7 C7        -10.5072    2.0741   55.4213 C.3     1  ZINC001060620810    0.1600
      8 N8         -9.9062    1.1153   56.3517 N.pl3   1  ZINC001060620810   -0.6900
      9 C9        -10.6449    0.0353   56.8069 C.ar    1  ZINC001060620810    0.5600
     10 N10       -11.9352   -0.0334   56.5154 N.ar    1  ZINC001060620810   -0.5400
     11 C11       -12.6692   -1.0531   56.9299 C.ar    1  ZINC001060620810    0.1700
     12 C12       -12.0732   -2.0518   57.6872 C.ar    1  ZINC001060620810   -0.0700
     13 F13       -12.7937   -3.1050   58.1310 F       1  ZINC001060620810   -0.1300
     14 C14       -10.7205   -1.9447   57.9780 C.ar    1  ZINC001060620810    0.1800
     15 N15       -10.0449   -0.9003   57.5272 N.ar    1  ZINC001060620810   -0.5500
     16 C16        -9.6867    3.3655   55.4190 C.3     1  ZINC001060620810   -0.1200
     17 C17        -8.2536    3.0583   54.9798 C.3     1  ZINC001060620810   -0.1300
     18 C18        -4.9843    2.4359   51.6049 C.3     1  ZINC001060620810   -0.1500
     19 C19        -3.8899    2.7941   52.6017 C.3     1  ZINC001060620810   -0.1500
     20 C20        -4.0889    3.6410   51.3630 C.3     1  ZINC001060620810   -0.1100
     21 H21        -4.5239    4.6269   51.5262 H       1  ZINC001060620810    0.1100
     22 C22        -2.9987    3.5979   50.2969 C.3     1  ZINC001060620810   -0.0900
     23 C23        -3.2760    2.4785   49.2932 C.3     1  ZINC001060620810   -0.1200
     24 C24        -3.4687    1.1676   50.0643 C.3     1  ZINC001060620810   -0.1200
     25 C25        -4.8410    1.1953   50.7373 C.3     1  ZINC001060620810   -0.0800
     26 H26        -6.3488    1.5603   53.6728 H       1  ZINC001060620810    0.4000
     27 H27        -8.7159    3.1745   52.8789 H       1  ZINC001060620810    0.0900
     28 H28        -9.1000    0.7443   52.5701 H       1  ZINC001060620810    0.0700
     29 H29        -8.6420    0.4565   54.2658 H       1  ZINC001060620810    0.0600
     30 H30       -11.1068    0.5568   54.0144 H       1  ZINC001060620810    0.0700
     31 H31       -10.9695    2.1901   53.3204 H       1  ZINC001060620810    0.0800
     32 H32       -11.5282    2.2928   55.7341 H       1  ZINC001060620810    0.1000
     33 H33        -8.9909    1.2367   56.6492 H       1  ZINC001060620810    0.4100
     34 H34       -13.7199   -1.1054   56.6859 H       1  ZINC001060620810    0.1800
     35 H35       -10.2255   -2.7040   58.5651 H       1  ZINC001060620810    0.1800
     36 H36        -9.6760    3.7909   56.4224 H       1  ZINC001060620810    0.0800
     37 H37       -10.1339    4.0787   54.7266 H       1  ZINC001060620810    0.0900
     38 H38        -7.8065    2.3450   55.6720 H       1  ZINC001060620810    0.0700
     39 H39        -7.6691    3.9784   54.9780 H       1  ZINC001060620810    0.0800
     40 H40        -4.1973    3.2267   53.5538 H       1  ZINC001060620810    0.1000
     41 H41        -3.0113    2.1500   52.6386 H       1  ZINC001060620810    0.1100
     42 H42        -2.0443    3.4128   50.7897 H       1  ZINC001060620810    0.0700
     43 H43        -2.9550    4.5518   49.7712 H       1  ZINC001060620810    0.0700
     44 H44        -2.4315    2.3811   48.6110 H       1  ZINC001060620810    0.0700
     45 H45        -4.1805    2.7079   48.7298 H       1  ZINC001060620810    0.0700
     46 H46        -2.6913    1.0713   50.8223 H       1  ZINC001060620810    0.0700
     47 H47        -3.4165    0.3258   49.3738 H       1  ZINC001060620810    0.0700
     48 H48        -4.9549    0.3068   51.3585 H       1  ZINC001060620810    0.0700
     49 H49        -5.6166    1.2003   49.9714 H       1  ZINC001060620810    0.0700
@<TRIPOS>BOND
     1     1     2    2
     2     2     3   am
     3     2    18    1
     4     3     4    1
     5     3    26    1
     6     4    17    1
     7     4     5    1
     8     4    27    1
     9     5     6    1
    10     5    28    1
    11     5    29    1
    12     6     7    1
    13     6    30    1
    14     6    31    1
    15     7     8    1
    16     7    16    1
    17     7    32    1
    18     8     9    1
    19     8    33    1
    20     9    15   ar
    21     9    10   ar
    22    10    11   ar
    23    11    12   ar
    24    11    34    1
    25    12    13    1
    26    12    14   ar
    27    14    15   ar
    28    14    35    1
    29    16    17    1
    30    16    36    1
    31    16    37    1
    32    17    38    1
    33    17    39    1
    34    18    20    1
    35    18    25    1
    36    18    19    1
    37    19    20    1
    38    19    40    1
    39    19    41    1
    40    20    21    1
    41    20    22    1
    42    22    23    1
    43    22    42    1
    44    22    43    1
    45    23    24    1
    46    23    44    1
    47    23    45    1
    48    24    25    1
    49    24    46    1
    50    24    47    1
    51    25    48    1
    52    25    49    1
@<TRIPOS>SUBSTRUCTURE
     1 ZINC001060620810        1 TEMP              0 ****  ****    0 ROOT


##########                                Name:    ZINC000271662144
##########                DOCK_Rotatable_Bonds:                   8
##########                         Heavy_Atoms:                  26
##########                    Molecular_Weight:             390.402
##########                DOCK_Rotatable_Bonds:                   8
##########                       Formal_Charge:          0.00999944
##########                     HBond_Acceptors:                   9
##########                        HBond_Donors:                   3
##########                         Heavy_Atoms:                  26
##########                          Grid_Score:          -30.627340
##########                     Grid_vdw_energy:          -30.093805
##########                      Grid_es_energy:           -0.533535
##########           Internal_energy_repulsive:           13.683864

@<TRIPOS>MOLECULE
ZINC000271662144
 44 45 1 0 0
SMALL
USER_CHARGES


@<TRIPOS>ATOM
      1 C1         -9.4580    3.7306   50.3292 C.3     1  ZINC000271662144   -0.1400
      2 C2         -8.6961    3.0197   51.4494 C.3     1  ZINC000271662144    0.1200
      3 H3         -8.8439    1.9433   51.3630 H       1  ZINC000271662144    0.0600
      4 N4         -9.1976    3.4799   52.7513 N.3     1  ZINC000271662144   -0.6700
      5 C5         -9.3625    2.3536   53.6799 C.3     1  ZINC000271662144    0.1300
      6 H6         -8.3960    1.8792   53.8509 H       1  ZINC000271662144    0.1100
      7 C7         -9.9214    2.8658   55.0088 C.3     1  ZINC000271662144   -0.2000
      8 C8        -10.0441    1.7011   55.9933 C.3     1  ZINC000271662144    0.4600
      9 F9         -8.9431    0.8502   55.8486 F       1  ZINC000271662144   -0.1800
     10 F10       -10.0811    2.1975   57.3008 F       1  ZINC000271662144   -0.1800
     11 F11       -11.2203    0.9905   55.7308 F       1  ZINC000271662144   -0.1700
     12 C12       -10.3170    1.3494   53.0871 C.ar    1  ZINC000271662144   -0.0900
     13 C13        -9.9397    0.0249   52.9671 C.ar    1  ZINC000271662144   -0.0600
     14 C14       -10.8142   -0.8968   52.4236 C.ar    1  ZINC000271662144   -0.1600
     15 C15       -12.0690   -0.4933   51.9997 C.ar    1  ZINC000271662144    0.1000
     16 F16       -12.9250   -1.3937   51.4686 F       1  ZINC000271662144   -0.1400
     17 C17       -12.4461    0.8334   52.1208 C.ar    1  ZINC000271662144   -0.1500
     18 C18       -11.5716    1.7524   52.6690 C.ar    1  ZINC000271662144   -0.0700
     19 C19        -7.2269    3.3358   51.3369 C.ar    1  ZINC000271662144   -0.1100
     20 C20        -6.7275    4.5032   51.8827 C.ar    1  ZINC000271662144   -0.0400
     21 C21        -5.3796    4.7932   51.7794 C.ar    1  ZINC000271662144   -0.1400
     22 C22        -4.5316    3.9155   51.1308 C.ar    1  ZINC000271662144   -0.0200
     23 C23        -5.0310    2.7472   50.5856 C.ar    1  ZINC000271662144   -0.6800
     24 S24        -3.9500    1.6285   49.7583 S.o2    1  ZINC000271662144    2.7000
     25 N25        -2.5292    1.6006   50.6086 N.am    1  ZINC000271662144   -1.2500
     26 O26        -4.5262    0.3371   49.8971 O.2     1  ZINC000271662144   -0.9600
     27 O27        -3.6525    2.2155   48.4989 O.2     1  ZINC000271662144   -0.9600
     28 C28        -6.3777    2.4553   50.6926 C.ar    1  ZINC000271662144   -0.0100
     29 H29       -10.5207    3.5020   50.4106 H       1  ZINC000271662144    0.0600
     30 H30        -9.3103    4.8071   50.4156 H       1  ZINC000271662144    0.0700
     31 H31        -9.0858    3.3892   49.3632 H       1  ZINC000271662144    0.0600
     32 H32        -8.5924    4.1858   53.1429 H       1  ZINC000271662144    0.3500
     33 H33        -9.2493    3.6193   55.4195 H       1  ZINC000271662144    0.1100
     34 H34       -10.9043    3.3070   54.8437 H       1  ZINC000271662144    0.1200
     35 H35        -8.9608   -0.2896   53.2979 H       1  ZINC000271662144    0.1300
     36 H36       -10.5189   -1.9313   52.3293 H       1  ZINC000271662144    0.1400
     37 H37       -13.4245    1.1493   51.7901 H       1  ZINC000271662144    0.1400
     38 H38       -11.8657    2.7873   52.7639 H       1  ZINC000271662144    0.1300
     39 H39        -7.3901    5.1891   52.3894 H       1  ZINC000271662144    0.1400
     40 H40        -4.9894    5.7058   52.2053 H       1  ZINC000271662144    0.1400
     41 H41        -3.4788    4.1424   51.0495 H       1  ZINC000271662144    0.1400
     42 H42        -1.7969    1.0384   50.3109 H       1  ZINC000271662144    0.4200
     43 H43        -2.4293    2.1464   51.4041 H       1  ZINC000271662144    0.4200
     44 H44        -6.7680    1.5427   50.2668 H       1  ZINC000271662144    0.1400
@<TRIPOS>BOND
     1     1     2    1
     2     1    29    1
     3     1    30    1
     4     1    31    1
     5     2     3    1
     6     2     4    1
     7     2    19    1
     8     4     5    1
     9     4    32    1
    10     5     6    1
    11     5     7    1
    12     5    12    1
    13     7     8    1
    14     7    33    1
    15     7    34    1
    16     8     9    1
    17     8    10    1
    18     8    11    1
    19    12    18   ar
    20    12    13   ar
    21    13    14   ar
    22    13    35    1
    23    14    15   ar
    24    14    36    1
    25    15    16    1
    26    15    17   ar
    27    17    18   ar
    28    17    37    1
    29    18    38    1
    30    19    28   ar
    31    19    20   ar
    32    20    21   ar
    33    20    39    1
    34    21    22   ar
    35    21    40    1
    36    22    23   ar
    37    22    41    1
    38    23    24    1
    39    23    28   ar
    40    24    25   am
    41    24    26    2
    42    24    27    2
    43    25    42    1
    44    25    43    1
    45    28    44    1
@<TRIPOS>SUBSTRUCTURE
     1 ZINC000271662144        1 TEMP              0 ****  ****    0 ROOT


##########                                Name:    ZINC000288921983
##########                DOCK_Rotatable_Bonds:                   6
##########                         Heavy_Atoms:                  26
##########                    Molecular_Weight:             356.428
##########                DOCK_Rotatable_Bonds:                   6
##########                       Formal_Charge:           0.0199997
##########                     HBond_Acceptors:                   8
##########                        HBond_Donors:                   1
##########                         Heavy_Atoms:                  26
##########                          Grid_Score:          -30.624786
##########                     Grid_vdw_energy:          -29.482286
##########                      Grid_es_energy:           -1.142499
##########           Internal_energy_repulsive:           59.631012

@<TRIPOS>MOLECULE
ZINC000288921983
 50 53 1 0 0
SMALL
USER_CHARGES


@<TRIPOS>ATOM
      1 C1          4.7265    1.7308   51.9503 C.3     1  ZINC000288921983   -0.1400
      2 C2          4.3368    2.3192   50.5928 C.3     1  ZINC000288921983   -0.0500
      3 C3          2.8487    2.1853   50.3958 C.ar    1  ZINC000288921983    0.3000
      4 N4          2.2202    3.0700   49.6479 N.ar    1  ZINC000288921983   -0.5000
      5 C5          0.9149    2.9873   49.4504 C.ar    1  ZINC000288921983    0.1300
      6 C6          0.2062    1.9473   50.0458 C.ar    1  ZINC000288921983    0.0500
      7 N7         -1.1761    1.8225   49.8623 N.am    1  ZINC000288921983   -0.6700
      8 C8         -2.0234    2.5723   50.5946 C.2     1  ZINC000288921983    0.7100
      9 O9         -1.5875    3.3568   51.4148 O.2     1  ZINC000288921983   -0.5500
     10 N10        -3.3542    2.4522   50.4180 N.am    1  ZINC000288921983   -0.6200
     11 C11        -3.8961    1.5083   49.4310 C.3     1  ZINC000288921983    0.1100
     12 C12        -4.9105    0.5954   50.1269 C.3     1  ZINC000288921983   -0.1400
     13 C13        -5.9693    1.4536   50.8233 C.3     1  ZINC000288921983   -0.1200
     14 C14        -5.3004    2.3301   51.8847 C.3     1  ZINC000288921983   -0.1300
     15 C15        -4.2906    3.2583   51.2130 C.3     1  ZINC000288921983    0.2700
     16 H16        -4.8138    3.9534   50.5563 H       1  ZINC000288921983    0.1100
     17 C17        -3.5347    4.0284   52.2649 C.2     1  ZINC000288921983    0.1700
     18 N18        -3.1796    5.2800   52.1977 N.2     1  ZINC000288921983   -0.2500
     19 N19        -2.5515    5.6039   53.2730 N.2     1  ZINC000288921983   -0.2700
     20 C20        -2.4847    4.5699   54.0627 C.2     1  ZINC000288921983    0.1800
     21 C21        -1.8321    4.5254   55.4203 C.3     1  ZINC000288921983   -0.0300
     22 C22        -2.7848    4.8814   56.5737 C.3     1  ZINC000288921983   -0.1200
     23 C23        -3.1405    3.3867   56.6369 C.3     1  ZINC000288921983   -0.1400
     24 C24        -1.7579    3.1123   56.0221 C.3     1  ZINC000288921983   -0.1200
     25 O25        -3.1085    3.5518   53.4466 O.3     1  ZINC000288921983   -0.2200
     26 C26         0.9084    1.0343   50.8281 C.ar    1  ZINC000288921983    0.1600
     27 N27         2.2147    1.1837   50.9720 N.ar    1  ZINC000288921983   -0.5000
     28 H28         5.8028    1.8277   52.0927 H       1  ZINC000288921983    0.0700
     29 H29         4.2053    2.2683   52.7425 H       1  ZINC000288921983    0.0600
     30 H30         4.4491    0.6772   51.9827 H       1  ZINC000288921983    0.0600
     31 H31         4.6142    3.3728   50.5603 H       1  ZINC000288921983    0.0900
     32 H32         4.8580    1.7817   49.8007 H       1  ZINC000288921983    0.0900
     33 H33         0.4064    3.7161   48.8366 H       1  ZINC000288921983    0.1700
     34 H34        -1.5239    1.1965   49.2080 H       1  ZINC000288921983    0.4100
     35 H35        -4.3896    2.0597   48.6307 H       1  ZINC000288921983    0.0800
     36 H36        -3.0865    0.9067   49.0178 H       1  ZINC000288921983    0.0800
     37 H37        -5.3905   -0.0455   49.3874 H       1  ZINC000288921983    0.0900
     38 H38        -4.3983   -0.0210   50.8657 H       1  ZINC000288921983    0.0700
     39 H39        -6.4641    2.0877   50.0878 H       1  ZINC000288921983    0.0700
     40 H40        -6.7061    0.8061   51.2987 H       1  ZINC000288921983    0.0800
     41 H41        -6.0581    2.9238   52.3962 H       1  ZINC000288921983    0.0900
     42 H42        -4.7846    1.6973   52.6069 H       1  ZINC000288921983    0.0900
     43 H43        -0.8850    5.0640   55.4525 H       1  ZINC000288921983    0.1000
     44 H44        -2.2743    5.2467   57.4648 H       1  ZINC000288921983    0.1000
     45 H45        -3.6179    5.5161   56.2718 H       1  ZINC000288921983    0.0800
     46 H46        -3.2500    3.0064   57.6525 H       1  ZINC000288921983    0.0700
     47 H47        -3.9703    3.1075   55.9875 H       1  ZINC000288921983    0.1000
     48 H48        -1.7619    2.3187   55.2749 H       1  ZINC000288921983    0.0700
     49 H49        -0.9666    2.9939   56.7625 H       1  ZINC000288921983    0.1000
     50 H50         0.3946    0.2139   51.3071 H       1  ZINC000288921983    0.1800
@<TRIPOS>BOND
     1     1     2    1
     2     1    28    1
     3     1    29    1
     4     1    30    1
     5     2     3    1
     6     2    31    1
     7     2    32    1
     8     3    27   ar
     9     3     4   ar
    10     4     5   ar
    11     5     6   ar
    12     5    33    1
    13     6     7    1
    14     6    26   ar
    15     7     8   am
    16     7    34    1
    17     8     9    2
    18     8    10   am
    19    10    15    1
    20    10    11    1
    21    11    12    1
    22    11    35    1
    23    11    36    1
    24    12    13    1
    25    12    37    1
    26    12    38    1
    27    13    14    1
    28    13    39    1
    29    13    40    1
    30    14    15    1
    31    14    41    1
    32    14    42    1
    33    15    16    1
    34    15    17    1
    35    17    25    1
    36    17    18    2
    37    18    19    1
    38    19    20    2
    39    20    21    1
    40    20    25    1
    41    21    24    1
    42    21    22    1
    43    21    43    1
    44    22    23    1
    45    22    44    1
    46    22    45    1
    47    23    24    1
    48    23    46    1
    49    23    47    1
    50    24    48    1
    51    24    49    1
    52    26    27   ar
    53    26    50    1
@<TRIPOS>SUBSTRUCTURE
     1 ZINC000288921983        1 TEMP              0 ****  ****    0 ROOT


##########                                Name:    ZINC000438893617
##########                DOCK_Rotatable_Bonds:                   5
##########                         Heavy_Atoms:                  29
##########                    Molecular_Weight:             412.596
##########                DOCK_Rotatable_Bonds:                   5
##########                       Formal_Charge:           0.0600001
##########                     HBond_Acceptors:                   5
##########                        HBond_Donors:                   0
##########                         Heavy_Atoms:                  29
##########                          Grid_Score:          -30.606033
##########                     Grid_vdw_energy:          -30.471712
##########                      Grid_es_energy:           -0.134321
##########           Internal_energy_repulsive:          168.364029

@<TRIPOS>MOLECULE
ZINC000438893617
 61 66 1 0 0
SMALL
USER_CHARGES


@<TRIPOS>ATOM
      1 C1        -14.6662    0.0553   62.3765 C.3     1  ZINC000438893617   -0.1000
      2 C2        -14.1215    1.4575   62.2865 C.2     1  ZINC000438893617   -0.0900
      3 C3        -12.8499    1.7522   62.5609 C.2     1  ZINC000438893617   -0.1600
      4 C4        -11.8004    0.7585   62.9881 C.3     1  ZINC000438893617   -0.0400
      5 H5        -12.1535   -0.2611   63.1419 H       1  ZINC000438893617    0.1400
      6 C6        -10.6791    1.2628   63.8986 C.3     1  ZINC000438893617   -0.1400
      7 C7        -10.3872    0.9403   62.4311 C.3     1  ZINC000438893617   -0.1800
      8 H8        -10.2162    1.7787   61.7559 H       1  ZINC000438893617    0.1300
      9 C9         -9.5890   -0.3039   62.1375 C.2     1  ZINC000438893617    0.5500
     10 O10        -8.7905   -0.7181   62.9510 O.2     1  ZINC000438893617   -0.5300
     11 N11        -9.7626   -0.9563   60.9710 N.am    1  ZINC000438893617   -0.6100
     12 C12        -8.9971   -2.1752   60.6745 C.3     1  ZINC000438893617    0.0900
     13 C13        -9.9814   -3.3027   60.3396 C.3     1  ZINC000438893617    0.1000
     14 N14       -10.9402   -2.8082   59.3416 N.am    1  ZINC000438893617   -0.6100
     15 C15       -11.1146   -3.4611   58.1755 C.2     1  ZINC000438893617    0.5300
     16 O16       -10.4772   -4.4662   57.9421 O.2     1  ZINC000438893617   -0.5300
     17 C17       -12.1014   -2.9420   57.1616 C.3     1  ZINC000438893617   -0.0700
     18 C18       -13.4893   -2.8544   57.7993 C.3     1  ZINC000438893617   -0.1100
     19 C19       -14.4911   -2.3274   56.7700 C.3     1  ZINC000438893617   -0.0800
     20 C20       -14.5393   -3.2781   55.5722 C.3     1  ZINC000438893617   -0.1100
     21 C21       -13.1514   -3.3656   54.9345 C.3     1  ZINC000438893617   -0.0800
     22 C22       -12.7170   -1.9757   54.4652 C.3     1  ZINC000438893617   -0.1100
     23 C23       -12.6688   -1.0250   55.6631 C.3     1  ZINC000438893617   -0.0900
     24 C24       -14.0569   -0.9374   56.3008 C.3     1  ZINC000438893617   -0.1100
     25 C25       -11.6670   -1.5520   56.6925 C.3     1  ZINC000438893617   -0.0900
     26 C26       -12.1495   -3.8927   55.9637 C.3     1  ZINC000438893617   -0.1200
     27 C27       -11.7057   -1.5892   59.6381 C.3     1  ZINC000438893617    0.0700
     28 C28       -10.7255   -0.4648   59.9754 C.3     1  ZINC000438893617    0.1000
     29 S29       -12.5851    3.4778   62.3475 S.3     1  ZINC000438893617    0.1000
     30 C30       -14.2658    3.7088   61.8837 C.2     1  ZINC000438893617   -0.2100
     31 C31       -14.9015    2.5364   61.9071 C.2     1  ZINC000438893617   -0.1300
     32 H32       -14.5438   -0.4444   61.4155 H       1  ZINC000438893617    0.0700
     33 H33       -14.1242   -0.4965   63.1445 H       1  ZINC000438893617    0.0700
     34 H34       -15.7246    0.0925   62.6344 H       1  ZINC000438893617    0.0700
     35 H35       -10.7003    2.3132   64.1887 H       1  ZINC000438893617    0.1100
     36 H36       -10.2941    0.5747   64.6513 H       1  ZINC000438893617    0.1100
     37 H37        -8.3412   -1.9971   59.8223 H       1  ZINC000438893617    0.0800
     38 H38        -8.4029   -2.4548   61.5445 H       1  ZINC000438893617    0.1000
     39 H39        -9.4368   -4.1549   59.9328 H       1  ZINC000438893617    0.1100
     40 H40       -10.5145   -3.6029   61.2417 H       1  ZINC000438893617    0.0700
     41 H41       -13.7988   -3.8447   58.1336 H       1  ZINC000438893617    0.0800
     42 H42       -13.4550   -2.1771   58.6527 H       1  ZINC000438893617    0.0700
     43 H43       -15.4800   -2.2651   57.2243 H       1  ZINC000438893617    0.0800
     44 H44       -14.8488   -4.2684   55.9064 H       1  ZINC000438893617    0.0600
     45 H45       -15.2531   -2.9027   54.8388 H       1  ZINC000438893617    0.0700
     46 H46       -13.1857   -4.0429   54.0811 H       1  ZINC000438893617    0.0800
     47 H47       -11.7282   -2.0380   54.0109 H       1  ZINC000438893617    0.0600
     48 H48       -13.4307   -1.6003   53.7319 H       1  ZINC000438893617    0.0700
     49 H49       -12.3594   -0.0347   55.3289 H       1  ZINC000438893617    0.0700
     50 H50       -14.7706   -0.5620   55.5675 H       1  ZINC000438893617    0.0700
     51 H51       -14.0226   -0.2601   57.1542 H       1  ZINC000438893617    0.0600
     52 H52       -11.6327   -0.8748   57.5459 H       1  ZINC000438893617    0.0700
     53 H53       -10.6781   -1.6145   56.2382 H       1  ZINC000438893617    0.0700
     54 H54       -11.1606   -3.9550   55.5094 H       1  ZINC000438893617    0.0700
     55 H55       -12.4589   -4.8829   56.2980 H       1  ZINC000438893617    0.0800
     56 H56       -12.2999   -1.3097   58.7681 H       1  ZINC000438893617    0.1300
     57 H57       -12.3616   -1.7674   60.4902 H       1  ZINC000438893617    0.0800
     58 H58       -11.2713    0.3866   60.3818 H       1  ZINC000438893617    0.1100
     59 H59       -10.1906   -0.1633   59.0747 H       1  ZINC000438893617    0.0700
     60 H60       -14.7135    4.6546   61.6165 H       1  ZINC000438893617    0.1700
     61 H61       -15.9474    2.4374   61.6569 H       1  ZINC000438893617    0.1400
@<TRIPOS>BOND
     1     1     2    1
     2     1    32    1
     3     1    33    1
     4     1    34    1
     5     2    31    1
     6     2     3    2
     7     3     4    1
     8     3    29    1
     9     4     5    1
    10     4     7    1
    11     4     6    1
    12     6     7    1
    13     6    35    1
    14     6    36    1
    15     7     8    1
    16     7     9    1
    17     9    10    2
    18     9    11   am
    19    11    28    1
    20    11    12    1
    21    12    13    1
    22    12    37    1
    23    12    38    1
    24    13    14    1
    25    13    39    1
    26    13    40    1
    27    14    15   am
    28    14    27    1
    29    15    16    2
    30    15    17    1
    31    17    25    1
    32    17    26    1
    33    17    18    1
    34    18    19    1
    35    18    41    1
    36    18    42    1
    37    19    24    1
    38    19    20    1
    39    19    43    1
    40    20    21    1
    41    20    44    1
    42    20    45    1
    43    21    22    1
    44    21    26    1
    45    21    46    1
    46    22    23    1
    47    22    47    1
    48    22    48    1
    49    23    24    1
    50    23    25    1
    51    23    49    1
    52    24    50    1
    53    24    51    1
    54    25    52    1
    55    25    53    1
    56    26    54    1
    57    26    55    1
    58    27    28    1
    59    27    56    1
    60    27    57    1
    61    28    58    1
    62    28    59    1
    63    29    30    1
    64    30    31    2
    65    30    60    1
    66    31    61    1
@<TRIPOS>SUBSTRUCTURE
     1 ZINC000438893617        1 TEMP              0 ****  ****    0 ROOT


##########                                Name:    ZINC000876376999
##########                DOCK_Rotatable_Bonds:                   7
##########                         Heavy_Atoms:                  24
##########                    Molecular_Weight:             358.502
##########                DOCK_Rotatable_Bonds:                   7
##########                       Formal_Charge:          -0.0299994
##########                     HBond_Acceptors:                   7
##########                        HBond_Donors:                   2
##########                         Heavy_Atoms:                  24
##########                          Grid_Score:          -30.599794
##########                     Grid_vdw_energy:          -27.729561
##########                      Grid_es_energy:           -2.870233
##########           Internal_energy_repulsive:           35.699539

@<TRIPOS>MOLECULE
ZINC000876376999
 54 56 1 0 0
SMALL
USER_CHARGES


@<TRIPOS>ATOM
      1 C1         -8.1888    4.2006   51.4204 C.3     1  ZINC000876376999   -0.1500
      2 C2         -7.7307    2.7433   51.3352 C.3     1  ZINC000876376999   -0.1100
      3 C3         -8.1309    2.0072   52.6153 C.3     1  ZINC000876376999   -0.0700
      4 C4         -7.8573    0.5109   52.4508 C.3     1  ZINC000876376999    0.0900
      5 O5         -6.4615    0.3038   52.2253 O.3     1  ZINC000876376999   -0.5600
      6 C6         -7.3168    2.5495   53.7923 C.3     1  ZINC000876376999   -0.1100
      7 C7         -7.6927    1.7913   55.0674 C.3     1  ZINC000876376999   -0.1400
      8 C8         -9.1794    2.0091   55.3667 C.3     1  ZINC000876376999    0.1100
      9 N9         -9.9611    1.6250   54.1835 N.am    1  ZINC000876376999   -0.6300
     10 C10       -10.9700    0.7372   54.2855 C.2     1  ZINC000876376999    0.7100
     11 O11       -11.6096    0.4276   53.2989 O.2     1  ZINC000876376999   -0.5800
     12 N12       -11.2700    0.1927   55.4813 N.am    1  ZINC000876376999   -0.7500
     13 C13       -12.3666   -0.7724   55.5923 C.3     1  ZINC000876376999    0.1400
     14 C14       -11.8126   -2.1245   56.0576 C.3     1  ZINC000876376999   -0.1100
     15 C15       -12.1696   -2.3697   57.4983 C.3     1  ZINC000876376999   -0.1100
     16 C16       -13.3792   -3.2791   57.7446 C.3     1  ZINC000876376999   -0.5200
     17 H17       -13.6229   -3.4096   58.8082 H       1  ZINC000876376999    0.1500
     18 C18       -14.5588   -2.7199   56.9166 C.3     1  ZINC000876376999   -0.1200
     19 C19       -14.4869   -3.1890   55.4675 C.3     1  ZINC000876376999   -0.1200
     20 C20       -13.2545   -4.0925   55.2327 C.3     1  ZINC000876376999   -0.5300
     21 H21       -13.4058   -4.8273   54.4297 H       1  ZINC000876376999    0.1500
     22 C22       -12.0460   -3.1763   55.0076 C.3     1  ZINC000876376999   -0.1000
     23 S23       -13.0050   -4.8643   56.8858 S.o2    1  ZINC000876376999    2.3700
     24 O24       -11.6391   -5.2099   57.0654 O.2     1  ZINC000876376999   -0.9300
     25 O25       -14.0301   -5.8140   57.1424 O.2     1  ZINC000876376999   -0.9300
     26 C26        -9.6224    2.2274   52.8868 C.3     1  ZINC000876376999    0.1400
     27 H27        -9.2777    4.2380   51.4510 H       1  ZINC000876376999    0.0500
     28 H28        -7.7842    4.6564   52.3240 H       1  ZINC000876376999    0.0600
     29 H29        -7.8310    4.7456   50.5469 H       1  ZINC000876376999    0.0500
     30 H30        -8.2026    2.2636   50.4777 H       1  ZINC000876376999    0.0600
     31 H31        -6.6474    2.7091   51.2200 H       1  ZINC000876376999    0.0700
     32 H32        -8.1613   -0.0157   53.3554 H       1  ZINC000876376999    0.0500
     33 H33        -8.4232    0.1294   51.6008 H       1  ZINC000876376999    0.0400
     34 H34        -5.8944    0.6425   52.9316 H       1  ZINC000876376999    0.3800
     35 H35        -6.2539    2.4164   53.5906 H       1  ZINC000876376999    0.0700
     36 H36        -7.5311    3.6102   53.9239 H       1  ZINC000876376999    0.0700
     37 H37        -7.5019    0.7274   54.9276 H       1  ZINC000876376999    0.0700
     38 H38        -7.0959    2.1622   55.9006 H       1  ZINC000876376999    0.0800
     39 H39        -9.4752    1.3931   56.2158 H       1  ZINC000876376999    0.0700
     40 H40        -9.3558    3.0600   55.5957 H       1  ZINC000876376999    0.0700
     41 H41       -10.7599    0.4398   56.2685 H       1  ZINC000876376999    0.3900
     42 H42       -13.0972   -0.4106   56.3159 H       1  ZINC000876376999    0.0800
     43 H43       -12.8459   -0.8911   54.6205 H       1  ZINC000876376999    0.0700
     44 H44       -10.6970   -1.9671   56.0620 H       1  ZINC000876376999    0.0900
     45 H45       -11.2949   -2.8030   58.0142 H       1  ZINC000876376999    0.0900
     46 H46       -12.3542   -1.3996   57.9918 H       1  ZINC000876376999    0.0900
     47 H47       -15.4955   -3.0807   57.3524 H       1  ZINC000876376999    0.0800
     48 H48       -14.5587   -1.6345   56.9553 H       1  ZINC000876376999    0.0900
     49 H49       -15.3909   -3.7636   55.2431 H       1  ZINC000876376999    0.0800
     50 H50       -14.4517   -2.3318   54.8015 H       1  ZINC000876376999    0.0900
     51 H51       -12.1573   -2.6839   54.0259 H       1  ZINC000876376999    0.0900
     52 H52       -11.1414   -3.8039   54.9236 H       1  ZINC000876376999    0.0900
     53 H53        -9.8350    3.2961   52.9137 H       1  ZINC000876376999    0.0600
     54 H54       -10.2106    1.7554   52.0998 H       1  ZINC000876376999    0.1000
@<TRIPOS>BOND
     1     1     2    1
     2     1    27    1
     3     1    28    1
     4     1    29    1
     5     2     3    1
     6     2    30    1
     7     2    31    1
     8     3    26    1
     9     3     4    1
    10     3     6    1
    11     4     5    1
    12     4    32    1
    13     4    33    1
    14     5    34    1
    15     6     7    1
    16     6    35    1
    17     6    36    1
    18     7     8    1
    19     7    37    1
    20     7    38    1
    21     8     9    1
    22     8    39    1
    23     8    40    1
    24     9    10   am
    25     9    26    1
    26    10    11    2
    27    10    12   am
    28    12    13    1
    29    12    41    1
    30    13    14    1
    31    13    42    1
    32    13    43    1
    33    14    22    1
    34    14    15    1
    35    14    44    1
    36    15    16    1
    37    15    45    1
    38    15    46    1
    39    16    17    1
    40    16    23    1
    41    16    18    1
    42    18    19    1
    43    18    47    1
    44    18    48    1
    45    19    20    1
    46    19    49    1
    47    19    50    1
    48    20    21    1
    49    20    22    1
    50    20    23    1
    51    22    51    1
    52    22    52    1
    53    23    24    2
    54    23    25    2
    55    26    53    1
    56    26    54    1
@<TRIPOS>SUBSTRUCTURE
     1 ZINC000876376999        1 TEMP              0 ****  ****    0 ROOT


##########                                Name:    ZINC001291841503
##########                DOCK_Rotatable_Bonds:                   7
##########                         Heavy_Atoms:                  28
##########                    Molecular_Weight:             397.544
##########                DOCK_Rotatable_Bonds:                   7
##########                       Formal_Charge:         -0.00999964
##########                     HBond_Acceptors:                   7
##########                        HBond_Donors:                   0
##########                         Heavy_Atoms:                  28
##########                          Grid_Score:          -30.542135
##########                     Grid_vdw_energy:          -31.364750
##########                      Grid_es_energy:            0.822615
##########           Internal_energy_repulsive:           17.842197

@<TRIPOS>MOLECULE
ZINC001291841503
 55 58 1 0 0
SMALL
USER_CHARGES


@<TRIPOS>ATOM
      1 C1        -10.3023    1.7047   56.2981 C.3     1  ZINC001291841503   -0.1500
      2 C2        -10.3429    0.6017   55.2383 C.3     1  ZINC001291841503   -0.1100
      3 C3        -10.3763    1.2337   53.8454 C.3     1  ZINC001291841503    0.0500
      4 H4        -10.8732    2.2025   53.8978 H       1  ZINC001291841503    0.0900
      5 C5         -8.9673    1.4185   53.3437 C.2     1  ZINC001291841503    0.2000
      6 N6         -8.1192    0.4716   53.0575 N.2     1  ZINC001291841503   -0.2700
      7 N7         -7.0091    0.9806   52.6567 N.2     1  ZINC001291841503   -0.3100
      8 C8         -7.0902    2.2902   52.6658 C.2     1  ZINC001291841503    0.3600
      9 N9         -6.0929    3.1800   52.2992 N.3     1  ZINC001291841503   -0.4500
     10 C10        -5.4129    3.7250   53.4818 C.3     1  ZINC001291841503    0.0200
     11 C11        -5.1329    2.5472   51.3849 C.3     1  ZINC001291841503    0.0700
     12 H12        -4.7337    1.6302   51.8181 H       1  ZINC001291841503    0.0800
     13 C13        -5.7867    2.2672   50.0043 C.3     1  ZINC001291841503   -0.1400
     14 C14        -4.5478    2.3232   49.0754 C.3     1  ZINC001291841503    0.0500
     15 O15        -3.7147    3.3573   49.6231 O.3     1  ZINC001291841503   -0.3800
     16 C16        -3.9942    3.5243   51.0215 C.3     1  ZINC001291841503    0.0600
     17 N17        -8.3439    2.6106   53.0987 N.pl3   1  ZINC001291841503   -0.4700
     18 C18        -8.9030    3.9533   53.2740 C.3     1  ZINC001291841503    0.1900
     19 C19        -9.5526    4.3988   51.9893 C.2     1  ZINC001291841503   -0.2700
     20 C20       -10.1266    3.6035   51.0815 C.2     1  ZINC001291841503    0.0800
     21 N21       -10.6257    4.2358   50.0386 N.2     1  ZINC001291841503   -0.4800
     22 C22       -10.5047    5.5202   50.0161 C.2     1  ZINC001291841503    0.0500
     23 C23       -11.0090    6.4149   48.9133 C.3     1  ZINC001291841503   -0.0800
     24 S24        -9.6960    6.0608   51.4221 S.3     1  ZINC001291841503    0.1800
     25 C25       -11.1311    0.3323   52.9028 C.ar    1  ZINC001291841503   -0.0900
     26 C26       -12.2103    0.8235   52.1922 C.ar    1  ZINC001291841503   -0.0900
     27 C27       -12.9027   -0.0033   51.3275 C.ar    1  ZINC001291841503   -0.1200
     28 C28       -12.5155   -1.3212   51.1728 C.ar    1  ZINC001291841503   -0.1200
     29 C29       -11.4357   -1.8123   51.8826 C.ar    1  ZINC001291841503   -0.1200
     30 C30       -10.7407   -0.9842   52.7441 C.ar    1  ZINC001291841503   -0.1100
     31 H31        -9.4101    2.3141   56.1540 H       1  ZINC001291841503    0.0500
     32 H32       -11.1892    2.3312   56.2044 H       1  ZINC001291841503    0.0500
     33 H33       -10.2785    1.2545   57.2904 H       1  ZINC001291841503    0.0600
     34 H34        -9.4559   -0.0248   55.3319 H       1  ZINC001291841503    0.0800
     35 H35       -11.2350   -0.0077   55.3824 H       1  ZINC001291841503    0.0800
     36 H36        -4.8849    2.9236   53.9989 H       1  ZINC001291841503    0.0500
     37 H37        -4.6998    4.4886   53.1712 H       1  ZINC001291841503    0.0900
     38 H38        -6.1493    4.1670   54.1529 H       1  ZINC001291841503    0.0700
     39 H39        -6.2503    1.2810   49.9818 H       1  ZINC001291841503    0.0900
     40 H40        -6.5068    3.0437   49.7458 H       1  ZINC001291841503    0.0800
     41 H41        -4.0225    1.3681   49.0875 H       1  ZINC001291841503    0.0700
     42 H42        -4.8481    2.5778   48.0590 H       1  ZINC001291841503    0.0900
     43 H43        -4.3134    4.5484   51.2152 H       1  ZINC001291841503    0.0800
     44 H44        -3.1031    3.2966   51.6066 H       1  ZINC001291841503    0.0700
     45 H45        -9.6471    3.9359   54.0704 H       1  ZINC001291841503    0.1100
     46 H46        -8.1050    4.6475   53.5375 H       1  ZINC001291841503    0.1100
     47 H47       -10.1773    2.5305   51.1935 H       1  ZINC001291841503    0.1700
     48 H48       -12.0308    6.7236   49.1345 H       1  ZINC001291841503    0.0900
     49 H49       -10.3712    7.2957   48.8396 H       1  ZINC001291841503    0.0800
     50 H50       -10.9900    5.8725   47.9679 H       1  ZINC001291841503    0.0900
     51 H51       -12.5128    1.8533   52.3131 H       1  ZINC001291841503    0.1300
     52 H52       -13.7463    0.3804   50.7730 H       1  ZINC001291841503    0.1200
     53 H53       -13.0569   -1.9675   50.4978 H       1  ZINC001291841503    0.1200
     54 H54       -11.1334   -2.8421   51.7620 H       1  ZINC001291841503    0.1200
     55 H55        -9.8970   -1.3679   53.2986 H       1  ZINC001291841503    0.1200
@<TRIPOS>BOND
     1     1     2    1
     2     1    31    1
     3     1    32    1
     4     1    33    1
     5     2     3    1
     6     2    34    1
     7     2    35    1
     8     3     4    1
     9     3     5    1
    10     3    25    1
    11     5    17    1
    12     5     6    2
    13     6     7    1
    14     7     8    2
    15     8     9    1
    16     8    17    1
    17     9    10    1
    18     9    11    1
    19    10    36    1
    20    10    37    1
    21    10    38    1
    22    11    12    1
    23    11    16    1
    24    11    13    1
    25    13    14    1
    26    13    39    1
    27    13    40    1
    28    14    15    1
    29    14    41    1
    30    14    42    1
    31    15    16    1
    32    16    43    1
    33    16    44    1
    34    17    18    1
    35    18    19    1
    36    18    45    1
    37    18    46    1
    38    19    24    1
    39    19    20    2
    40    20    21    1
    41    20    47    1
    42    21    22    2
    43    22    23    1
    44    22    24    1
    45    23    48    1
    46    23    49    1
    47    23    50    1
    48    25    30   ar
    49    25    26   ar
    50    26    27   ar
    51    26    51    1
    52    27    28   ar
    53    27    52    1
    54    28    29   ar
    55    28    53    1
    56    29    30   ar
    57    29    54    1
    58    30    55    1
@<TRIPOS>SUBSTRUCTURE
     1 ZINC001291841503        1 TEMP              0 ****  ****    0 ROOT


##########                                Name:    ZINC000836820897
##########                DOCK_Rotatable_Bonds:                   5
##########                         Heavy_Atoms:                  22
##########                    Molecular_Weight:             330.355
##########                DOCK_Rotatable_Bonds:                   5
##########                       Formal_Charge:          -0.0200003
##########                     HBond_Acceptors:                   8
##########                        HBond_Donors:                   1
##########                         Heavy_Atoms:                  22
##########                          Grid_Score:          -30.495396
##########                     Grid_vdw_energy:          -28.561459
##########                      Grid_es_energy:           -1.933936
##########           Internal_energy_repulsive:           11.905947

@<TRIPOS>MOLECULE
ZINC000836820897
 38 40 1 0 0
SMALL
USER_CHARGES


@<TRIPOS>ATOM
      1 O1          0.8208    0.8165   51.1047 O.2     1  ZINC000836820897   -0.5200
      2 C2          0.4496    1.8074   50.5063 C.2     1  ZINC000836820897    0.5800
      3 C3         -0.8136    2.4713   50.8886 C.ar    1  ZINC000836820897   -0.1600
      4 C4         -0.8480    3.3319   51.9876 C.ar    1  ZINC000836820897   -0.0100
      5 C5         -2.0294    3.9492   52.3396 C.ar    1  ZINC000836820897   -0.1700
      6 C6         -3.1817    3.7167   51.6049 C.ar    1  ZINC000836820897    0.2200
      7 F7         -4.3368    4.3243   51.9542 F       1  ZINC000836820897   -0.1100
      8 C8         -3.1529    2.8633   50.5122 C.ar    1  ZINC000836820897   -0.7200
      9 S9         -4.6219    2.5744   49.5831 S.o2    1  ZINC000836820897    2.7000
     10 O10        -5.6115    3.4435   50.1165 O.2     1  ZINC000836820897   -0.9400
     11 O11        -4.2389    2.5797   48.2147 O.2     1  ZINC000836820897   -0.9400
     12 N12        -5.1215    1.0325   49.9229 N.am    1  ZINC000836820897   -1.0800
     13 C13        -5.4516    0.6562   51.2997 C.3     1  ZINC000836820897    0.0700
     14 C14        -6.7456    1.2157   51.8942 C.3     1  ZINC000836820897   -0.1800
     15 C15        -6.6564   -0.2628   51.5113 C.3     1  ZINC000836820897   -0.1900
     16 C16        -1.9762    2.2448   50.1485 C.ar    1  ZINC000836820897    0.0600
     17 N17         1.1931    2.3037   49.4976 N.am    1  ZINC000836820897   -0.6200
     18 C18         2.4617    1.7418   49.0114 C.3     1  ZINC000836820897    0.0900
     19 C19         2.9315    2.6221   47.8342 C.3     1  ZINC000836820897   -0.1600
     20 C20         1.6174    3.2956   47.3579 C.3     1  ZINC000836820897    0.0800
     21 H21         1.0582    2.6357   46.6947 H       1  ZINC000836820897    0.1100
     22 F22         1.8787    4.5218   46.7372 F       1  ZINC000836820897   -0.1900
     23 C23         0.8660    3.4963   48.6951 C.3     1  ZINC000836820897    0.0800
     24 H24         0.0490    3.5134   52.5609 H       1  ZINC000836820897    0.1500
     25 H25        -2.0572    4.6148   53.1898 H       1  ZINC000836820897    0.1600
     26 H26        -5.1956    0.3785   49.2103 H       1  ZINC000836820897    0.4200
     27 H27        -4.6011    0.5335   51.9703 H       1  ZINC000836820897    0.1400
     28 H28        -6.7465    1.4615   52.9561 H       1  ZINC000836820897    0.1100
     29 H29        -7.3512    1.8639   51.2608 H       1  ZINC000836820897    0.1000
     30 H30        -7.2034   -0.5876   50.6262 H       1  ZINC000836820897    0.1000
     31 H31        -6.5986   -0.9900   52.3214 H       1  ZINC000836820897    0.1000
     32 H32        -1.9548    1.5805   49.2973 H       1  ZINC000836820897    0.1600
     33 H33         3.2052    1.7607   49.8083 H       1  ZINC000836820897    0.0800
     34 H34         2.3071    0.7181   48.6702 H       1  ZINC000836820897    0.0800
     35 H35         3.6473    3.3706   48.1739 H       1  ZINC000836820897    0.0900
     36 H36         3.3600    2.0092   47.0412 H       1  ZINC000836820897    0.1000
     37 H37        -0.2083    3.5576   48.5211 H       1  ZINC000836820897    0.1000
     38 H38         1.2215    4.3951   49.1988 H       1  ZINC000836820897    0.0900
@<TRIPOS>BOND
     1     1     2    2
     2     2     3    1
     3     2    17   am
     4     3    16   ar
     5     3     4   ar
     6     4     5   ar
     7     4    24    1
     8     5     6   ar
     9     5    25    1
    10     6     7    1
    11     6     8   ar
    12     8     9    1
    13     8    16   ar
    14     9    10    2
    15     9    11    2
    16     9    12   am
    17    12    13    1
    18    12    26    1
    19    13    15    1
    20    13    14    1
    21    13    27    1
    22    14    15    1
    23    14    28    1
    24    14    29    1
    25    15    30    1
    26    15    31    1
    27    16    32    1
    28    17    23    1
    29    17    18    1
    30    18    19    1
    31    18    33    1
    32    18    34    1
    33    19    20    1
    34    19    35    1
    35    19    36    1
    36    20    21    1
    37    20    22    1
    38    20    23    1
    39    23    37    1
    40    23    38    1
@<TRIPOS>SUBSTRUCTURE
     1 ZINC000836820897        1 TEMP              0 ****  ****    0 ROOT


##########                                Name:    ZINC000541315701
##########                DOCK_Rotatable_Bonds:                   4
##########                         Heavy_Atoms:                  25
##########                    Molecular_Weight:             422.709
##########                DOCK_Rotatable_Bonds:                   4
##########                       Formal_Charge:           0.0300003
##########                     HBond_Acceptors:                   6
##########                        HBond_Donors:                   0
##########                         Heavy_Atoms:                  25
##########                          Grid_Score:          -30.494442
##########                     Grid_vdw_energy:          -29.777365
##########                      Grid_es_energy:           -0.717078
##########           Internal_energy_repulsive:           20.376026

@<TRIPOS>MOLECULE
ZINC000541315701
 42 44 1 0 0
SMALL
USER_CHARGES


@<TRIPOS>ATOM
      1 C1         -5.1785    4.6329   55.0161 C.3     1  ZINC000541315701    0.0800
      2 N2         -4.1237    3.7218   54.5651 N.am    1  ZINC000541315701   -0.5700
      3 C3         -4.1518    3.2257   53.3124 C.2     1  ZINC000541315701    0.5400
      4 O4         -3.2785    2.4715   52.9391 O.2     1  ZINC000541315701   -0.5000
      5 C5         -5.2683    3.6083   52.3753 C.3     1  ZINC000541315701   -0.1100
      6 H6         -5.7444    4.5347   52.6968 H       1  ZINC000541315701    0.1300
      7 C7         -4.7550    3.7254   50.9215 C.3     1  ZINC000541315701   -0.1500
      8 C8         -5.0106    2.3581   50.3266 C.2     1  ZINC000541315701    0.5200
      9 O9         -4.5075    1.9399   49.3053 O.2     1  ZINC000541315701   -0.5200
     10 N10        -5.8759    1.6741   51.0948 N.am    1  ZINC000541315701   -0.6100
     11 C11        -6.3337    0.3114   50.8121 C.3     1  ZINC000541315701    0.0900
     12 C12        -6.3034    2.4680   52.2540 C.3     1  ZINC000541315701    0.1900
     13 H13        -6.2964    1.8543   53.1548 H       1  ZINC000541315701    0.1100
     14 C14        -7.6806    3.0331   52.0197 C.ar    1  ZINC000541315701   -0.0900
     15 C15        -8.4077    3.5428   53.0790 C.ar    1  ZINC000541315701   -0.1000
     16 C16        -9.6711    4.0619   52.8649 C.ar    1  ZINC000541315701   -0.1000
     17 C17       -10.2079    4.0710   51.5915 C.ar    1  ZINC000541315701   -0.1000
     18 C18        -9.4805    3.5611   50.5306 C.ar    1  ZINC000541315701   -0.0300
     19 Cl19      -10.1539    3.5728   48.9306 Cl      1  ZINC000541315701   -0.0600
     20 C20        -8.2142    3.0470   50.7446 C.ar    1  ZINC000541315701   -0.0900
     21 C21        -3.0906    3.3679   55.4322 C.ar    1  ZINC000541315701    0.3800
     22 N22        -3.0910    2.1721   55.9990 N.ar    1  ZINC000541315701   -0.4700
     23 C23        -2.1328    1.7971   56.8249 C.ar    1  ZINC000541315701    0.1300
     24 C24        -1.0874    2.6461   57.1292 C.ar    1  ZINC000541315701   -0.1600
     25 C25        -1.0490    3.9099   56.5559 C.ar    1  ZINC000541315701   -0.0400
     26 C26        -2.0657    4.2728   55.6892 C.ar    1  ZINC000541315701   -0.1300
     27 Br27       -2.0685    5.9803   54.8765 Br      1  ZINC000541315701   -0.0200
     28 H28        -6.1231    4.3548   54.5487 H       1  ZINC000541315701    0.0900
     29 H29        -5.2763    4.5677   56.0998 H       1  ZINC000541315701    0.0800
     30 H30        -4.9210    5.6542   54.7353 H       1  ZINC000541315701    0.0700
     31 H31        -5.3146    4.4878   50.3796 H       1  ZINC000541315701    0.1200
     32 H32        -3.6890    3.9531   50.9105 H       1  ZINC000541315701    0.1100
     33 H33        -5.8658   -0.0461   49.8950 H       1  ZINC000541315701    0.0900
     34 H34        -6.0589   -0.3431   51.6393 H       1  ZINC000541315701    0.0700
     35 H35        -7.4171    0.3098   50.6920 H       1  ZINC000541315701    0.0600
     36 H36        -7.9888    3.5351   54.0745 H       1  ZINC000541315701    0.1300
     37 H37       -10.2388    4.4599   53.6930 H       1  ZINC000541315701    0.1400
     38 H38       -11.1951    4.4760   51.4244 H       1  ZINC000541315701    0.1400
     39 H39        -7.6460    2.6489   49.9170 H       1  ZINC000541315701    0.1400
     40 H40        -2.1668    0.8131   57.2689 H       1  ZINC000541315701    0.1700
     41 H41        -0.3077    2.3304   57.8066 H       1  ZINC000541315701    0.1500
     42 H42        -0.2422    4.5927   56.7776 H       1  ZINC000541315701    0.1500
@<TRIPOS>BOND
     1     1     2    1
     2     1    28    1
     3     1    29    1
     4     1    30    1
     5     2     3   am
     6     2    21    1
     7     3     4    2
     8     3     5    1
     9     5     6    1
    10     5    12    1
    11     5     7    1
    12     7     8    1
    13     7    31    1
    14     7    32    1
    15     8     9    2
    16     8    10   am
    17    10    11    1
    18    10    12    1
    19    11    33    1
    20    11    34    1
    21    11    35    1
    22    12    13    1
    23    12    14    1
    24    14    20   ar
    25    14    15   ar
    26    15    16   ar
    27    15    36    1
    28    16    17   ar
    29    16    37    1
    30    17    18   ar
    31    17    38    1
    32    18    19    1
    33    18    20   ar
    34    20    39    1
    35    21    26   ar
    36    21    22   ar
    37    22    23   ar
    38    23    24   ar
    39    23    40    1
    40    24    25   ar
    41    24    41    1
    42    25    26   ar
    43    25    42    1
    44    26    27    1
@<TRIPOS>SUBSTRUCTURE
     1 ZINC000541315701        1 TEMP              0 ****  ****    0 ROOT


##########                                Name:    ZINC000455156110
##########                DOCK_Rotatable_Bonds:                   4
##########                         Heavy_Atoms:                  27
##########                    Molecular_Weight:             370.424
##########                DOCK_Rotatable_Bonds:                   4
##########                       Formal_Charge:           0.0100002
##########                     HBond_Acceptors:                   6
##########                        HBond_Donors:                   1
##########                         Heavy_Atoms:                  27
##########                          Grid_Score:          -30.432251
##########                     Grid_vdw_energy:          -29.219196
##########                      Grid_es_energy:           -1.213054
##########           Internal_energy_repulsive:           44.333672

@<TRIPOS>MOLECULE
ZINC000455156110
 50 53 1 0 0
SMALL
USER_CHARGES


@<TRIPOS>ATOM
      1 C1         -4.7503    2.0816   49.6123 C.3     1  ZINC000455156110    0.0300
      2 O2         -5.9335    2.8299   49.8988 O.3     1  ZINC000455156110   -0.3100
      3 C3         -6.7587    2.3361   50.8609 C.ar    1  ZINC000455156110    0.0900
      4 C4         -7.8959    3.0393   51.2259 C.ar    1  ZINC000455156110   -0.1600
      5 C5         -8.7348    2.5385   52.2031 C.ar    1  ZINC000455156110   -0.0800
      6 C6         -9.9707    3.3043   52.5995 C.3     1  ZINC000455156110   -0.1100
      7 C7         -8.4398    1.3304   52.8194 C.ar    1  ZINC000455156110    0.1500
      8 N8         -9.2914    0.8225   53.8097 N.am    1  ZINC000455156110   -0.6700
      9 C9         -9.9340   -0.3455   53.6116 C.2     1  ZINC000455156110    0.7200
     10 O10        -9.7748   -0.9586   52.5737 O.2     1  ZINC000455156110   -0.5500
     11 N11       -10.7530   -0.8340   54.5640 N.am    1  ZINC000455156110   -0.5600
     12 C12       -11.0291   -0.1848   55.8498 C.3     1  ZINC000455156110    0.1000
     13 C13       -12.0081   -1.1228   56.5663 C.3     1  ZINC000455156110   -0.0200
     14 C14       -11.3999   -1.6240   57.8742 C.3     1  ZINC000455156110   -0.1400
     15 C15       -11.2364   -0.4442   58.8375 C.3     1  ZINC000455156110    0.0600
     16 O16       -12.5042    0.1846   59.0364 O.3     1  ZINC000455156110   -0.3800
     17 C17       -13.0823    0.7266   57.8471 C.3     1  ZINC000455156110    0.0600
     18 C18       -13.3262   -0.4024   56.8409 C.3     1  ZINC000455156110   -0.1400
     19 C19       -12.2223   -2.2688   55.6099 C.ar    1  ZINC000455156110   -0.1300
     20 C20       -12.9977   -3.4077   55.7113 C.ar    1  ZINC000455156110   -0.0700
     21 C21       -13.0258   -4.3244   54.6766 C.ar    1  ZINC000455156110   -0.1400
     22 C22       -12.2751   -4.0994   53.5375 C.ar    1  ZINC000455156110   -0.0900
     23 C23       -11.4988   -2.9648   53.4316 C.ar    1  ZINC000455156110   -0.1300
     24 C24       -11.4694   -2.0318   54.4690 C.ar    1  ZINC000455156110    0.1600
     25 C25        -7.3010    0.6248   52.4541 C.ar    1  ZINC000455156110   -0.1200
     26 C26        -6.4645    1.1241   51.4733 C.ar    1  ZINC000455156110    0.0900
     27 F27        -5.3564    0.4383   51.1168 F       1  ZINC000455156110   -0.1300
     28 H28        -4.1834    2.5841   48.8286 H       1  ZINC000455156110    0.1000
     29 H29        -4.1399    2.0085   50.5124 H       1  ZINC000455156110    0.0600
     30 H30        -5.0251    1.0813   49.2775 H       1  ZINC000455156110    0.0600
     31 H31        -8.1263    3.9793   50.7466 H       1  ZINC000455156110    0.1400
     32 H32       -10.8082    2.9904   51.9765 H       1  ZINC000455156110    0.0800
     33 H33       -10.2017    3.1050   53.6461 H       1  ZINC000455156110    0.0600
     34 H34        -9.7964    4.3716   52.4629 H       1  ZINC000455156110    0.0800
     35 H35        -9.4183    1.3116   54.6377 H       1  ZINC000455156110    0.4100
     36 H36       -10.1105   -0.0830   56.4276 H       1  ZINC000455156110    0.0800
     37 H37       -11.4875    0.7911   55.6905 H       1  ZINC000455156110    0.0900
     38 H38       -12.0584   -2.3695   58.3199 H       1  ZINC000455156110    0.0800
     39 H39       -10.4254   -2.0698   57.6754 H       1  ZINC000455156110    0.0800
     40 H40       -10.8555   -0.8050   59.7929 H       1  ZINC000455156110    0.1000
     41 H41       -10.5356    0.2758   58.4148 H       1  ZINC000455156110    0.0500
     42 H42       -14.0294    1.2083   58.0900 H       1  ZINC000455156110    0.1000
     43 H43       -12.4019    1.4595   57.4133 H       1  ZINC000455156110    0.0500
     44 H44       -13.7135    0.0152   55.9116 H       1  ZINC000455156110    0.0800
     45 H45       -14.0478   -1.1079   57.2529 H       1  ZINC000455156110    0.0800
     46 H46       -13.5834   -3.5828   56.6016 H       1  ZINC000455156110    0.1300
     47 H47       -13.6324   -5.2141   54.7580 H       1  ZINC000455156110    0.1300
     48 H48       -12.2964   -4.8146   52.7286 H       1  ZINC000455156110    0.1300
     49 H49       -10.9142   -2.7951   52.5395 H       1  ZINC000455156110    0.1400
     50 H50        -7.0709   -0.3153   52.9332 H       1  ZINC000455156110    0.1700
@<TRIPOS>BOND
     1     1     2    1
     2     1    28    1
     3     1    29    1
     4     1    30    1
     5     2     3    1
     6     3    26   ar
     7     3     4   ar
     8     4     5   ar
     9     4    31    1
    10     5     6    1
    11     5     7   ar
    12     6    32    1
    13     6    33    1
    14     6    34    1
    15     7     8    1
    16     7    25   ar
    17     8     9   am
    18     8    35    1
    19     9    10    2
    20     9    11   am
    21    11    24    1
    22    11    12    1
    23    12    13    1
    24    12    36    1
    25    12    37    1
    26    13    18    1
    27    13    14    1
    28    13    19    1
    29    14    15    1
    30    14    38    1
    31    14    39    1
    32    15    16    1
    33    15    40    1
    34    15    41    1
    35    16    17    1
    36    17    18    1
    37    17    42    1
    38    17    43    1
    39    18    44    1
    40    18    45    1
    41    19    24   ar
    42    19    20   ar
    43    20    21   ar
    44    20    46    1
    45    21    22   ar
    46    21    47    1
    47    22    23   ar
    48    22    48    1
    49    23    24   ar
    50    23    49    1
    51    25    26   ar
    52    25    50    1
    53    26    27    1
@<TRIPOS>SUBSTRUCTURE
     1 ZINC000455156110        1 TEMP              0 ****  ****    0 ROOT


##########                                Name:    ZINC000478980774
##########                DOCK_Rotatable_Bonds:                   4
##########                         Heavy_Atoms:                  26
##########                    Molecular_Weight:             401.818
##########                DOCK_Rotatable_Bonds:                   4
##########                       Formal_Charge:          -0.0100001
##########                     HBond_Acceptors:                   9
##########                        HBond_Donors:                   1
##########                         Heavy_Atoms:                  26
##########                          Grid_Score:          -30.261429
##########                     Grid_vdw_energy:          -27.426645
##########                      Grid_es_energy:           -2.834783
##########           Internal_energy_repulsive:            8.889785

@<TRIPOS>MOLECULE
ZINC000478980774
 40 42 1 0 0
SMALL
USER_CHARGES


@<TRIPOS>ATOM
      1 C1         -7.7652    4.5169   52.3408 C.3     1  ZINC000478980774   -0.1400
      2 C2         -7.3250    3.2521   53.0806 C.3     1  ZINC000478980774   -0.4600
      3 H3         -6.9929    3.5155   54.0849 H       1  ZINC000478980774    0.1500
      4 C4         -8.4842    2.2934   53.1703 C.2     1  ZINC000478980774    0.5400
      5 O5         -9.3786    2.3450   52.3526 O.2     1  ZINC000478980774   -0.5000
      6 N6         -8.5272    1.3785   54.1591 N.am    1  ZINC000478980774   -0.6600
      7 C7         -9.6048    0.4872   54.2424 C.ar    1  ZINC000478980774    0.1600
      8 C8        -10.6675    0.7605   55.0925 C.ar    1  ZINC000478980774   -0.1200
      9 C9        -11.7312   -0.1182   55.1762 C.ar    1  ZINC000478980774   -0.0600
     10 C10       -11.7399   -1.2736   54.4124 C.ar    1  ZINC000478980774    0.0100
     11 O11       -12.6523   -2.2854   54.3136 O.3     1  ZINC000478980774   -0.2900
     12 C12       -12.3296   -2.9757   53.0919 C.3     1  ZINC000478980774    0.5700
     13 F13       -12.5821   -4.3458   53.2200 F       1  ZINC000478980774   -0.1100
     14 F14       -13.0532   -2.4422   52.0200 F       1  ZINC000478980774   -0.1500
     15 O15       -10.9200   -2.7346   52.9246 O.3     1  ZINC000478980774   -0.2800
     16 C16       -10.6748   -1.5505   53.5579 C.ar    1  ZINC000478980774    0.0500
     17 C17        -9.6126   -0.6669   53.4705 C.ar    1  ZINC000478980774   -0.0900
     18 S18        -5.9602    2.4680   52.1787 S.o     1  ZINC000478980774    1.3000
     19 O19        -6.4025    2.0956   50.8807 O.2     1  ZINC000478980774   -0.7800
     20 C20        -4.7409    3.8041   52.0418 C.3     1  ZINC000478980774   -0.4300
     21 C21        -3.5267    3.3022   51.3036 C.ar    1  ZINC000478980774   -0.0600
     22 C22        -3.6522    2.8178   50.0155 C.ar    1  ZINC000478980774   -0.1100
     23 C23        -2.5384    2.3572   49.3380 C.ar    1  ZINC000478980774   -0.1100
     24 C24        -1.2987    2.3805   49.9490 C.ar    1  ZINC000478980774   -0.1100
     25 C25        -1.1719    2.8648   51.2375 C.ar    1  ZINC000478980774   -0.1100
     26 C26        -2.2849    3.3314   51.9134 C.ar    1  ZINC000478980774   -0.0300
     27 Cl27       -2.1264    3.9397   53.5317 Cl      1  ZINC000478980774   -0.0600
     28 H28        -6.9267    5.2103   52.2760 H       1  ZINC000478980774    0.0800
     29 H29        -8.0972    4.2534   51.3367 H       1  ZINC000478980774    0.0700
     30 H30        -8.5853    4.9879   52.8827 H       1  ZINC000478980774    0.0700
     31 H31        -7.8121    1.3373   54.8131 H       1  ZINC000478980774    0.4200
     32 H32       -10.6630    1.6605   55.6895 H       1  ZINC000478980774    0.1500
     33 H33       -12.5567    0.0964   55.8386 H       1  ZINC000478980774    0.1500
     34 H34        -8.7883   -0.8772   52.8051 H       1  ZINC000478980774    0.1600
     35 H35        -5.1779    4.6403   51.4961 H       1  ZINC000478980774    0.1100
     36 H36        -4.4493    4.1335   53.0390 H       1  ZINC000478980774    0.1300
     37 H37        -4.6207    2.7988   49.5379 H       1  ZINC000478980774    0.1400
     38 H38        -2.6370    1.9788   48.3313 H       1  ZINC000478980774    0.1300
     39 H39        -0.4292    2.0199   49.4197 H       1  ZINC000478980774    0.1300
     40 H40        -0.2032    2.8829   51.7147 H       1  ZINC000478980774    0.1300
@<TRIPOS>BOND
     1     1     2    1
     2     1    28    1
     3     1    29    1
     4     1    30    1
     5     2     3    1
     6     2     4    1
     7     2    18    1
     8     4     5    2
     9     4     6   am
    10     6     7    1
    11     6    31    1
    12     7    17   ar
    13     7     8   ar
    14     8     9   ar
    15     8    32    1
    16     9    10   ar
    17     9    33    1
    18    10    16   ar
    19    10    11    1
    20    11    12    1
    21    12    13    1
    22    12    14    1
    23    12    15    1
    24    15    16    1
    25    16    17   ar
    26    17    34    1
    27    18    19    2
    28    18    20    1
    29    20    21    1
    30    20    35    1
    31    20    36    1
    32    21    26   ar
    33    21    22   ar
    34    22    23   ar
    35    22    37    1
    36    23    24   ar
    37    23    38    1
    38    24    25   ar
    39    24    39    1
    40    25    26   ar
    41    25    40    1
    42    26    27    1
@<TRIPOS>SUBSTRUCTURE
     1 ZINC000478980774        1 TEMP              0 ****  ****    0 ROOT


##########                                Name:    ZINC000966038509
##########                DOCK_Rotatable_Bonds:                   5
##########                         Heavy_Atoms:                  25
##########                    Molecular_Weight:             346.445
##########                DOCK_Rotatable_Bonds:                   5
##########                       Formal_Charge:           0.0299998
##########                     HBond_Acceptors:                   5
##########                        HBond_Donors:                   1
##########                         Heavy_Atoms:                  25
##########                          Grid_Score:          -30.235609
##########                     Grid_vdw_energy:          -27.938194
##########                      Grid_es_energy:           -2.297415
##########           Internal_energy_repulsive:           19.240257

@<TRIPOS>MOLECULE
ZINC000966038509
 52 54 1 0 0
SMALL
USER_CHARGES


@<TRIPOS>ATOM
      1 C1         -0.4974    2.3404   49.7905 C.3     1  ZINC000966038509   -0.1200
      2 C2         -1.8543    2.1343   50.4129 C.ar    1  ZINC000966038509   -0.0100
      3 C3         -2.7494    1.2553   49.8421 C.ar    1  ZINC000966038509   -0.1600
      4 C4         -3.9984    1.0652   50.4134 C.ar    1  ZINC000966038509    0.1300
      5 F5         -4.8722    0.2027   49.8497 F       1  ZINC000966038509   -0.1300
      6 C6         -4.3537    1.7566   51.5615 C.ar    1  ZINC000966038509   -0.1600
      7 C7         -3.4662    2.6381   52.1405 C.ar    1  ZINC000966038509   -0.0100
      8 C8         -3.8540    3.3894   53.3881 C.3     1  ZINC000966038509   -0.1200
      9 C9         -2.2050    2.8294   51.5723 C.ar    1  ZINC000966038509   -0.1500
     10 C10        -1.2497    3.7728   52.1884 C.2     1  ZINC000966038509    0.5700
     11 O11        -1.2870    4.9526   51.8972 O.2     1  ZINC000966038509   -0.5200
     12 N12        -0.3368    3.3257   53.0734 N.am    1  ZINC000966038509   -0.7100
     13 C13         0.6094    4.2617   53.6857 C.3     1  ZINC000966038509    0.1300
     14 H14         0.5201    5.2521   53.2396 H       1  ZINC000966038509    0.1200
     15 C15         0.4133    4.3245   55.2211 C.3     1  ZINC000966038509    0.0900
     16 N16         1.1309    3.1466   55.7417 N.am    1  ZINC000966038509   -0.6200
     17 C17         0.8796    2.5279   56.9125 C.2     1  ZINC000966038509    0.5400
     18 O18         1.5357    1.5623   57.2411 O.2     1  ZINC000966038509   -0.5300
     19 C19        -0.2164    3.0362   57.8131 C.3     1  ZINC000966038509   -0.1100
     20 C20        -1.5956    2.5191   57.3337 C.3     1  ZINC000966038509   -0.1100
     21 C21        -2.4544    2.5926   58.6205 C.3     1  ZINC000966038509   -0.1200
     22 C22        -1.4878    2.1676   59.7453 C.3     1  ZINC000966038509   -0.1200
     23 C23        -0.0649    2.4497   59.2320 C.3     1  ZINC000966038509   -0.1100
     24 C24         2.1654    2.7581   54.7719 C.3     1  ZINC000966038509    0.1000
     25 C25         2.0639    3.7322   53.5779 C.3     1  ZINC000966038509   -0.1100
     26 H26         2.7800    4.5472   53.6832 H       1  ZINC000966038509    0.1000
     27 C27         2.2790    2.9925   52.2561 C.3     1  ZINC000966038509   -0.1400
     28 H28         0.2086    1.6257   50.2134 H       1  ZINC000966038509    0.0800
     29 H29        -0.5653    2.1901   48.7130 H       1  ZINC000966038509    0.0800
     30 H30        -0.1542    3.3546   49.9949 H       1  ZINC000966038509    0.0700
     31 H31        -2.4777    0.7139   48.9480 H       1  ZINC000966038509    0.1400
     32 H32        -5.3277    1.6046   52.0027 H       1  ZINC000966038509    0.1400
     33 H33        -3.5675    2.8093   54.2653 H       1  ZINC000966038509    0.0800
     34 H34        -3.3428    4.3519   53.4062 H       1  ZINC000966038509    0.0700
     35 H35        -4.9320    3.5503   53.3950 H       1  ZINC000966038509    0.0800
     36 H36        -0.3062    2.3843   53.3048 H       1  ZINC000966038509    0.4000
     37 H37         0.8471    5.2407   55.6217 H       1  ZINC000966038509    0.0800
     38 H38        -0.6459    4.2644   55.4710 H       1  ZINC000966038509    0.0800
     39 H39        -0.2063    4.1256   57.8476 H       1  ZINC000966038509    0.0900
     40 H40        -2.0037    3.1685   56.5593 H       1  ZINC000966038509    0.0700
     41 H41        -1.5203    1.4916   56.9776 H       1  ZINC000966038509    0.0700
     42 H42        -2.8079    3.6103   58.7857 H       1  ZINC000966038509    0.0700
     43 H43        -3.2948    1.9012   58.5584 H       1  ZINC000966038509    0.0700
     44 H44        -1.6826    2.7510   60.6452 H       1  ZINC000966038509    0.0700
     45 H45        -1.6047    1.1046   59.9563 H       1  ZINC000966038509    0.0700
     46 H46         0.5087    1.5236   59.1938 H       1  ZINC000966038509    0.0800
     47 H47         0.4309    3.1700   59.8826 H       1  ZINC000966038509    0.0700
     48 H48         3.1511    2.8355   55.2306 H       1  ZINC000966038509    0.0800
     49 H49         1.9910    1.7370   54.4330 H       1  ZINC000966038509    0.0700
     50 H50         1.5350    2.2020   52.1569 H       1  ZINC000966038509    0.0600
     51 H51         2.1775    3.6930   51.4271 H       1  ZINC000966038509    0.0700
     52 H52         3.2774    2.5556   52.2425 H       1  ZINC000966038509    0.0700
@<TRIPOS>BOND
     1     1     2    1
     2     1    28    1
     3     1    29    1
     4     1    30    1
     5     2     9   ar
     6     2     3   ar
     7     3     4   ar
     8     3    31    1
     9     4     5    1
    10     4     6   ar
    11     6     7   ar
    12     6    32    1
    13     7     8    1
    14     7     9   ar
    15     8    33    1
    16     8    34    1
    17     8    35    1
    18     9    10    1
    19    10    11    2
    20    10    12   am
    21    12    13    1
    22    12    36    1
    23    13    14    1
    24    13    25    1
    25    13    15    1
    26    15    16    1
    27    15    37    1
    28    15    38    1
    29    16    17   am
    30    16    24    1
    31    17    18    2
    32    17    19    1
    33    19    23    1
    34    19    20    1
    35    19    39    1
    36    20    21    1
    37    20    40    1
    38    20    41    1
    39    21    22    1
    40    21    42    1
    41    21    43    1
    42    22    23    1
    43    22    44    1
    44    22    45    1
    45    23    46    1
    46    23    47    1
    47    24    25    1
    48    24    48    1
    49    24    49    1
    50    25    26    1
    51    25    27    1
    52    27    50    1
    53    27    51    1
    54    27    52    1
@<TRIPOS>SUBSTRUCTURE
     1 ZINC000966038509        1 TEMP              0 ****  ****    0 ROOT


##########                                Name:    ZINC000011498449
##########                DOCK_Rotatable_Bonds:                   5
##########                         Heavy_Atoms:                  21
##########                    Molecular_Weight:             331.198
##########                DOCK_Rotatable_Bonds:                   5
##########                       Formal_Charge:         1.30385e-07
##########                     HBond_Acceptors:                   7
##########                        HBond_Donors:                   1
##########                         Heavy_Atoms:                  21
##########                          Grid_Score:          -30.190964
##########                     Grid_vdw_energy:          -28.519461
##########                      Grid_es_energy:           -1.671503
##########           Internal_energy_repulsive:            8.194348

@<TRIPOS>MOLECULE
ZINC000011498449
 37 38 1 0 0
SMALL
USER_CHARGES


@<TRIPOS>ATOM
      1 C1          2.3775    1.4429   47.3630 C.3     1  ZINC000011498449   -0.1500
      2 C2          1.9149    1.8587   48.7609 C.3     1  ZINC000011498449    0.0700
      3 H3          1.7868    0.9714   49.3809 H       1  ZINC000011498449    0.0600
      4 C4          0.5814    2.6077   48.6571 C.3     1  ZINC000011498449    0.0800
      5 N5          0.2535    3.1573   49.9823 N.am    1  ZINC000011498449   -0.6100
      6 C6         -0.9571    2.9525   50.5380 C.2     1  ZINC000011498449    0.5100
      7 O7         -1.2088    3.4149   51.6306 O.2     1  ZINC000011498449   -0.5300
      8 C8         -1.9979    2.1489   49.8019 C.3     1  ZINC000011498449    0.1000
      9 N9         -3.2703    2.2192   50.5246 N.am    1  ZINC000011498449   -0.7200
     10 C10        -4.4303    2.2877   49.8416 C.2     1  ZINC000011498449    0.5600
     11 O11        -4.4208    2.2896   48.6260 O.2     1  ZINC000011498449   -0.5100
     12 C12        -5.7131    2.3604   50.5702 C.ar    1  ZINC000011498449   -0.1300
     13 C13        -6.1884    3.5894   51.0323 C.ar    1  ZINC000011498449   -0.0600
     14 C14        -7.3866    3.6510   51.7113 C.ar    1  ZINC000011498449   -0.1100
     15 C15        -8.1198    2.4972   51.9361 C.ar    1  ZINC000011498449    0.0000
     16 Cl16       -9.6278    2.5844   52.7915 Cl      1  ZINC000011498449   -0.0400
     17 C17        -7.6551    1.2749   51.4810 C.ar    1  ZINC000011498449   -0.1100
     18 C18        -6.4593    1.2001   50.7950 C.ar    1  ZINC000011498449    0.0300
     19 Cl19       -5.8776   -0.3328   50.2248 Cl      1  ZINC000011498449   -0.0100
     20 C20         1.2867    3.9366   50.6828 C.3     1  ZINC000011498449    0.0700
     21 C21         2.5857    3.1229   50.6878 C.3     1  ZINC000011498449    0.0500
     22 O22         2.8934    2.7172   49.3520 O.3     1  ZINC000011498449   -0.3700
     23 H23         3.3266    0.9120   47.4373 H       1  ZINC000011498449    0.0700
     24 H24         1.6302    0.7899   46.9123 H       1  ZINC000011498449    0.0800
     25 H25         2.5053    2.3306   46.7435 H       1  ZINC000011498449    0.0700
     26 H26         0.6714    3.4193   47.9352 H       1  ZINC000011498449    0.0800
     27 H27        -0.2025    1.9196   48.3408 H       1  ZINC000011498449    0.1000
     28 H28        -2.1272    2.5542   48.7983 H       1  ZINC000011498449    0.1000
     29 H29        -1.6749    1.1100   49.7354 H       1  ZINC000011498449    0.1000
     30 H30        -3.2780    2.2166   51.4946 H       1  ZINC000011498449    0.4100
     31 H31        -5.6181    4.4899   50.8584 H       1  ZINC000011498449    0.1500
     32 H32        -7.7546    4.6012   52.0693 H       1  ZINC000011498449    0.1500
     33 H33        -8.2311    0.3789   51.6593 H       1  ZINC000011498449    0.1500
     34 H34         1.4477    4.8820   50.1648 H       1  ZINC000011498449    0.0900
     35 H35         0.9697    4.1285   51.7079 H       1  ZINC000011498449    0.1000
     36 H36         3.3980    3.7360   51.0782 H       1  ZINC000011498449    0.1100
     37 H37         2.4603    2.2407   51.3156 H       1  ZINC000011498449    0.0600
@<TRIPOS>BOND
     1     1     2    1
     2     1    23    1
     3     1    24    1
     4     1    25    1
     5     2     3    1
     6     2    22    1
     7     2     4    1
     8     4     5    1
     9     4    26    1
    10     4    27    1
    11     5     6   am
    12     5    20    1
    13     6     7    2
    14     6     8    1
    15     8     9    1
    16     8    28    1
    17     8    29    1
    18     9    10   am
    19     9    30    1
    20    10    11    2
    21    10    12    1
    22    12    18   ar
    23    12    13   ar
    24    13    14   ar
    25    13    31    1
    26    14    15   ar
    27    14    32    1
    28    15    16    1
    29    15    17   ar
    30    17    18   ar
    31    17    33    1
    32    18    19    1
    33    20    21    1
    34    20    34    1
    35    20    35    1
    36    21    22    1
    37    21    36    1
    38    21    37    1
@<TRIPOS>SUBSTRUCTURE
     1 ZINC000011498449        1 TEMP              0 ****  ****    0 ROOT


##########                                Name:    ZINC001064463188
##########                DOCK_Rotatable_Bonds:                   6
##########                         Heavy_Atoms:                  25
##########                    Molecular_Weight:             342.441
##########                DOCK_Rotatable_Bonds:                   6
##########                       Formal_Charge:          -0.0100004
##########                     HBond_Acceptors:                   6
##########                        HBond_Donors:                   0
##########                         Heavy_Atoms:                  25
##########                          Grid_Score:          -30.149132
##########                     Grid_vdw_energy:          -28.745907
##########                      Grid_es_energy:           -1.403226
##########           Internal_energy_repulsive:           13.425716

@<TRIPOS>MOLECULE
ZINC001064463188
 51 54 1 0 0
SMALL
USER_CHARGES


@<TRIPOS>ATOM
      1 C1         -2.8715    2.3320   49.2867 C.3     1  ZINC001064463188    0.0400
      2 O2         -3.4098    2.1288   50.5947 O.3     1  ZINC001064463188   -0.3000
      3 C3         -4.5307    1.3728   50.6882 C.ar    1  ZINC001064463188    0.3900
      4 C4         -4.6063    0.1386   50.0447 C.ar    1  ZINC001064463188   -0.2800
      5 C5         -5.7690   -0.5991   50.1672 C.ar    1  ZINC001064463188    0.2000
      6 N6         -6.7699   -0.1154   50.8869 N.ar    1  ZINC001064463188   -0.5800
      7 C7         -6.6693    1.0613   51.4874 C.ar    1  ZINC001064463188    0.5300
      8 N8         -7.7368    1.5329   52.2314 N.3     1  ZINC001064463188   -0.4500
      9 C9         -8.0370    0.6346   53.3440 C.3     1  ZINC001064463188    0.0700
     10 C10        -9.5517    0.4278   53.4621 C.3     1  ZINC001064463188   -0.1200
     11 C11       -10.2686    1.6980   53.8784 C.3     1  ZINC001064463188    0.1400
     12 H12       -11.3452    1.5283   53.8950 H       1  ZINC001064463188    0.0900
     13 C13        -9.7969    2.1887   55.2486 C.3     1  ZINC001064463188   -0.1300
     14 C14        -8.6100    3.1153   54.9312 C.3     1  ZINC001064463188   -0.1300
     15 C15        -8.7361    3.4330   53.4373 C.3     1  ZINC001064463188    0.1200
     16 H16        -8.8312    4.5099   53.2973 H       1  ZINC001064463188    0.0900
     17 C17        -7.4960    2.9287   52.6832 C.3     1  ZINC001064463188    0.0600
     18 N18        -9.9354    2.7540   52.8777 N.am    1  ZINC001064463188   -0.6000
     19 C19       -10.5708    3.0358   51.7230 C.2     1  ZINC001064463188    0.5800
     20 O20       -10.1692    3.9375   51.0124 O.2     1  ZINC001064463188   -0.5400
     21 C21       -11.7499    2.2530   51.3222 C.2     1  ZINC001064463188   -0.2200
     22 C22       -12.9689    2.7635   51.4708 C.2     1  ZINC001064463188    0.0000
     23 C23       -13.1422    4.1440   52.0497 C.3     1  ZINC001064463188   -0.1300
     24 C24       -14.1769    1.9615   51.0602 C.3     1  ZINC001064463188   -0.1200
     25 C25       -14.9618    2.4421   49.8379 C.3     1  ZINC001064463188   -0.1900
     26 C26       -14.0953    1.1845   49.7447 C.3     1  ZINC001064463188   -0.1600
     27 N27        -5.5699    1.7949   51.3983 N.ar    1  ZINC001064463188   -0.5900
     28 H28        -3.6133    2.8295   48.6617 H       1  ZINC001064463188    0.0600
     29 H29        -1.9780    2.9527   49.3539 H       1  ZINC001064463188    0.1000
     30 H30        -2.6127    1.3690   48.8467 H       1  ZINC001064463188    0.0600
     31 H31        -3.7755   -0.2329   49.4633 H       1  ZINC001064463188    0.1500
     32 H32        -5.8602   -1.5591   49.6809 H       1  ZINC001064463188    0.1800
     33 H33        -7.5533   -0.3270   53.1725 H       1  ZINC001064463188    0.0800
     34 H34        -7.6581    1.0673   54.2699 H       1  ZINC001064463188    0.0600
     35 H35        -9.9409    0.1008   52.4980 H       1  ZINC001064463188    0.0800
     36 H36        -9.7466   -0.3480   54.2026 H       1  ZINC001064463188    0.0800
     37 H37       -10.5906    2.7435   55.7489 H       1  ZINC001064463188    0.0800
     38 H38        -9.4716    1.3492   55.8630 H       1  ZINC001064463188    0.0900
     39 H39        -8.6770    4.0306   55.5194 H       1  ZINC001064463188    0.0800
     40 H40        -7.6679    2.6048   55.1310 H       1  ZINC001064463188    0.0800
     41 H41        -6.6344    2.9366   53.3507 H       1  ZINC001064463188    0.0700
     42 H42        -7.3023    3.5738   51.8262 H       1  ZINC001064463188    0.0900
     43 H43       -11.6256    1.2636   50.9072 H       1  ZINC001064463188    0.1200
     44 H44       -13.1305    4.8795   51.2453 H       1  ZINC001064463188    0.0800
     45 H45       -14.0936    4.1992   52.5788 H       1  ZINC001064463188    0.0800
     46 H46       -12.3279    4.3517   52.7439 H       1  ZINC001064463188    0.0700
     47 H47       -14.7419    1.5113   51.8764 H       1  ZINC001064463188    0.1400
     48 H48       -16.0435    2.3082   49.8499 H       1  ZINC001064463188    0.1000
     49 H49       -14.6045    3.3382   49.3308 H       1  ZINC001064463188    0.1000
     50 H50       -13.1679    1.2534   49.1762 H       1  ZINC001064463188    0.0900
     51 H51       -14.6069    0.2234   49.6953 H       1  ZINC001064463188    0.1000
@<TRIPOS>BOND
     1     1     2    1
     2     1    28    1
     3     1    29    1
     4     1    30    1
     5     2     3    1
     6     3    27   ar
     7     3     4   ar
     8     4     5   ar
     9     4    31    1
    10     5     6   ar
    11     5    32    1
    12     6     7   ar
    13     7     8    1
    14     7    27   ar
    15     8    17    1
    16     8     9    1
    17     9    10    1
    18     9    33    1
    19     9    34    1
    20    10    11    1
    21    10    35    1
    22    10    36    1
    23    11    12    1
    24    11    18    1
    25    11    13    1
    26    13    14    1
    27    13    37    1
    28    13    38    1
    29    14    15    1
    30    14    39    1
    31    14    40    1
    32    15    16    1
    33    15    17    1
    34    15    18    1
    35    17    41    1
    36    17    42    1
    37    18    19   am
    38    19    20    2
    39    19    21    1
    40    21    22    2
    41    21    43    1
    42    22    23    1
    43    22    24    1
    44    23    44    1
    45    23    45    1
    46    23    46    1
    47    24    26    1
    48    24    25    1
    49    24    47    1
    50    25    26    1
    51    25    48    1
    52    25    49    1
    53    26    50    1
    54    26    51    1
@<TRIPOS>SUBSTRUCTURE
     1 ZINC001064463188        1 TEMP              0 ****  ****    0 ROOT


##########                                Name:    ZINC001122903793
##########                DOCK_Rotatable_Bonds:                   4
##########                         Heavy_Atoms:                  25
##########                    Molecular_Weight:             399.968
##########                DOCK_Rotatable_Bonds:                   4
##########                       Formal_Charge:           0.0100003
##########                     HBond_Acceptors:                   9
##########                        HBond_Donors:                   0
##########                         Heavy_Atoms:                  25
##########                          Grid_Score:          -30.144606
##########                     Grid_vdw_energy:          -29.146622
##########                      Grid_es_energy:           -0.997984
##########           Internal_energy_repulsive:           22.194422

@<TRIPOS>MOLECULE
ZINC001122903793
 47 50 1 0 0
SMALL
USER_CHARGES


@<TRIPOS>ATOM
      1 C1         -2.6053    3.0317   51.0052 C.3     1  ZINC001122903793   -0.1400
      2 C2         -3.8958    2.2598   51.2880 C.3     1  ZINC001122903793   -0.0400
      3 H3         -3.8471    1.8171   52.2829 H       1  ZINC001122903793    0.1000
      4 S4         -4.1083    0.9486   50.0453 S.3     1  ZINC001122903793   -0.2500
      5 C5         -5.7942    0.3648   50.4000 C.3     1  ZINC001122903793   -0.0800
      6 C6         -6.7312    1.5770   50.4355 C.3     1  ZINC001122903793    0.0700
      7 N7         -6.3284    2.4859   51.5111 N.3     1  ZINC001122903793   -0.4800
      8 C8         -7.3526    3.3625   51.8298 C.2     1  ZINC001122903793    0.3700
      9 N9         -7.9998    4.1400   50.9934 N.2     1  ZINC001122903793   -0.2900
     10 N10        -8.8883    4.8237   51.6214 N.2     1  ZINC001122903793   -0.2400
     11 C11        -8.8627    4.5239   52.9013 C.2     1  ZINC001122903793    0.2600
     12 C12        -9.7241    5.0919   53.9512 C.2     1  ZINC001122903793   -0.1600
     13 C13        -9.3155    5.8544   54.9930 C.2     1  ZINC001122903793    0.1600
     14 Cl14       -7.6544    6.2879   55.2509 Cl      1  ZINC001122903793    0.0300
     15 N15       -10.2861    6.2377   55.7920 N.2     1  ZINC001122903793   -0.4600
     16 C16       -11.4833    5.8523   55.4974 C.2     1  ZINC001122903793    0.0300
     17 S17       -11.4722    4.9076   54.0727 S.3     1  ZINC001122903793    0.2200
     18 N18        -7.8805    3.5742   53.0724 N.pl3   1  ZINC001122903793   -0.4600
     19 C19        -7.4799    2.9306   54.3261 C.3     1  ZINC001122903793    0.1100
     20 C20        -8.1134    1.5406   54.4108 C.3     1  ZINC001122903793    0.0700
     21 H21        -7.7006    0.9881   55.2549 H       1  ZINC001122903793    0.0800
     22 C22        -9.6525    1.6584   54.5460 C.3     1  ZINC001122903793   -0.1500
     23 C23       -10.1044    0.2863   53.9757 C.3     1  ZINC001122903793   -0.1500
     24 C24        -9.0490    0.0232   52.8800 C.3     1  ZINC001122903793    0.0500
     25 O25        -7.8964    0.8183   53.1882 O.3     1  ZINC001122903793   -0.3700
     26 C26        -5.0937    3.2121   51.2061 C.3     1  ZINC001122903793    0.1000
     27 H27        -5.1551    3.6240   50.1988 H       1  ZINC001122903793    0.0800
     28 C28        -4.9126    4.3514   52.2111 C.3     1  ZINC001122903793   -0.1500
     29 H29        -2.4841    3.8210   51.7471 H       1  ZINC001122903793    0.0800
     30 H30        -1.7558    2.3506   51.0572 H       1  ZINC001122903793    0.0700
     31 H31        -2.6567    3.4732   50.0100 H       1  ZINC001122903793    0.0700
     32 H32        -6.1154   -0.3236   49.6183 H       1  ZINC001122903793    0.1200
     33 H33        -5.8113   -0.1398   51.3660 H       1  ZINC001122903793    0.0900
     34 H34        -6.6819    2.1010   49.4810 H       1  ZINC001122903793    0.0700
     35 H35        -7.7529    1.2398   50.6098 H       1  ZINC001122903793    0.0900
     36 H36       -12.3670    6.0962   56.0681 H       1  ZINC001122903793    0.2100
     37 H37        -6.3943    2.8377   54.3561 H       1  ZINC001122903793    0.1200
     38 H38        -7.8161    3.5352   55.1684 H       1  ZINC001122903793    0.1000
     39 H39        -9.9480    1.7666   55.5895 H       1  ZINC001122903793    0.0900
     40 H40       -10.0380    2.4805   53.9431 H       1  ZINC001122903793    0.0800
     41 H41       -10.0657   -0.4851   54.7447 H       1  ZINC001122903793    0.0800
     42 H42       -11.1029    0.3555   53.5439 H       1  ZINC001122903793    0.0900
     43 H43        -8.7774   -1.0324   52.8741 H       1  ZINC001122903793    0.0700
     44 H44        -9.4473    0.3093   51.9067 H       1  ZINC001122903793    0.0700
     45 H45        -4.8538    3.9408   53.2192 H       1  ZINC001122903793    0.0600
     46 H46        -3.9938    4.8926   51.9852 H       1  ZINC001122903793    0.0800
     47 H47        -5.7610    5.0324   52.1451 H       1  ZINC001122903793    0.0600
@<TRIPOS>BOND
     1     1     2    1
     2     1    29    1
     3     1    30    1
     4     1    31    1
     5     2     3    1
     6     2    26    1
     7     2     4    1
     8     4     5    1
     9     5     6    1
    10     5    32    1
    11     5    33    1
    12     6     7    1
    13     6    34    1
    14     6    35    1
    15     7     8    1
    16     7    26    1
    17     8    18    1
    18     8     9    2
    19     9    10    1
    20    10    11    2
    21    11    12    1
    22    11    18    1
    23    12    17    1
    24    12    13    2
    25    13    14    1
    26    13    15    1
    27    15    16    2
    28    16    17    1
    29    16    36    1
    30    18    19    1
    31    19    20    1
    32    19    37    1
    33    19    38    1
    34    20    21    1
    35    20    25    1
    36    20    22    1
    37    22    23    1
    38    22    39    1
    39    22    40    1
    40    23    24    1
    41    23    41    1
    42    23    42    1
    43    24    25    1
    44    24    43    1
    45    24    44    1
    46    26    27    1
    47    26    28    1
    48    28    45    1
    49    28    46    1
    50    28    47    1
@<TRIPOS>SUBSTRUCTURE
     1 ZINC001122903793        1 TEMP              0 ****  ****    0 ROOT


##########                                Name:    ZINC000430767928
##########                DOCK_Rotatable_Bonds:                   4
##########                         Heavy_Atoms:                  25
##########                    Molecular_Weight:             358.505
##########                DOCK_Rotatable_Bonds:                   4
##########                       Formal_Charge:          -0.0100002
##########                     HBond_Acceptors:                   5
##########                        HBond_Donors:                   0
##########                         Heavy_Atoms:                  25
##########                          Grid_Score:          -30.138041
##########                     Grid_vdw_energy:          -29.970730
##########                      Grid_es_energy:           -0.167311
##########           Internal_energy_repulsive:           21.295153

@<TRIPOS>MOLECULE
ZINC000430767928
 51 55 1 0 0
SMALL
USER_CHARGES


@<TRIPOS>ATOM
      1 O1         -2.0812    5.2809   51.5868 O.2     1  ZINC000430767928   -0.4600
      2 C2         -2.0508    4.1596   51.1268 C.2     1  ZINC000430767928    0.5300
      3 C3         -3.0975    3.4936   50.2665 C.3     1  ZINC000430767928    0.0400
      4 H4         -3.1379    3.9029   49.2570 H       1  ZINC000430767928    0.1400
      5 C5         -4.4748    3.4767   50.9609 C.3     1  ZINC000430767928   -0.1100
      6 C6         -5.1017    2.1650   50.4227 C.3     1  ZINC000430767928   -0.1000
      7 H7         -5.7536    2.3763   49.5751 H       1  ZINC000430767928    0.1000
      8 C8         -5.8835    1.4554   51.5300 C.3     1  ZINC000430767928   -0.0800
      9 C9         -6.9361    2.4072   52.1017 C.3     1  ZINC000430767928   -0.1100
     10 C10        -7.7178    1.6975   53.2090 C.3     1  ZINC000430767928   -0.1200
     11 C11        -8.4086    0.4598   52.6328 C.3     1  ZINC000430767928   -0.1200
     12 C12        -7.3559   -0.4920   52.0612 C.3     1  ZINC000430767928   -0.1200
     13 C13        -6.5742    0.2178   50.9538 C.3     1  ZINC000430767928   -0.1200
     14 C14        -3.8997    1.3055   49.9750 C.3     1  ZINC000430767928    0.1600
     15 N15        -2.6809    2.0636   50.3035 N.am    1  ZINC000430767928   -0.6400
     16 C16        -1.3955    2.0744   50.6707 C.2     1  ZINC000430767928    0.7400
     17 O17        -0.6286    1.1466   50.5021 O.2     1  ZINC000430767928   -0.5100
     18 N18        -1.0701    3.2407   51.2699 N.am    1  ZINC000430767928   -0.5800
     19 C19         0.1831    3.4781   51.9906 C.3     1  ZINC000430767928    0.2600
     20 H20         0.7026    2.5312   52.1378 H       1  ZINC000430767928    0.1200
     21 C21         1.0548    4.4099   51.1889 C.2     1  ZINC000430767928   -0.2100
     22 C22         2.3678    4.2656   51.0034 C.2     1  ZINC000430767928   -0.1200
     23 C23         2.9588    5.2480   50.2276 C.2     1  ZINC000430767928   -0.1400
     24 C24         2.1256    6.1902   49.7833 C.2     1  ZINC000430767928   -0.2300
     25 S25         0.4952    5.8501   50.3484 S.3     1  ZINC000430767928    0.1700
     26 C26        -0.1224    4.1091   53.3505 C.3     1  ZINC000430767928   -0.1700
     27 C27         0.5733    3.5152   54.5771 C.3     1  ZINC000430767928   -0.1700
     28 C28         1.0042    4.8816   54.0399 C.3     1  ZINC000430767928   -0.1600
     29 H29        -4.3621    3.4363   52.0443 H       1  ZINC000430767928    0.0800
     30 H30        -5.0693    4.3407   50.6639 H       1  ZINC000430767928    0.1000
     31 H31        -5.1983    1.1533   52.3222 H       1  ZINC000430767928    0.0700
     32 H32        -6.4440    3.2889   52.5122 H       1  ZINC000430767928    0.0600
     33 H33        -7.6212    2.7092   51.3096 H       1  ZINC000430767928    0.0700
     34 H34        -7.0326    1.3955   54.0011 H       1  ZINC000430767928    0.0600
     35 H35        -8.4677    2.3756   53.6163 H       1  ZINC000430767928    0.0600
     36 H36        -8.9655   -0.0458   53.4216 H       1  ZINC000430767928    0.0600
     37 H37        -9.0937    0.7619   51.8407 H       1  ZINC000430767928    0.0600
     38 H38        -6.6707   -0.7941   52.8532 H       1  ZINC000430767928    0.0600
     39 H39        -7.8480   -1.3737   51.6506 H       1  ZINC000430767928    0.0600
     40 H40        -7.2593    0.5198   50.1617 H       1  ZINC000430767928    0.0700
     41 H41        -5.8243   -0.4604   50.5466 H       1  ZINC000430767928    0.0600
     42 H42        -3.9060    0.3515   50.5023 H       1  ZINC000430767928    0.0900
     43 H43        -3.9411    1.1378   48.8988 H       1  ZINC000430767928    0.0800
     44 H44         2.9275    3.4446   51.4265 H       1  ZINC000430767928    0.1400
     45 H45         4.0144    5.2516   49.9999 H       1  ZINC000430767928    0.1400
     46 H46         2.4084    7.0314   49.1677 H       1  ZINC000430767928    0.1600
     47 H47        -1.1390    4.4806   53.4788 H       1  ZINC000430767928    0.1200
     48 H48         0.0143    3.4958   55.5125 H       1  ZINC000430767928    0.1000
     49 H49         1.2485    2.6751   54.4151 H       1  ZINC000430767928    0.1000
     50 H50         1.9629    4.9402   53.5245 H       1  ZINC000430767928    0.1000
     51 H51         0.7286    5.7609   54.6221 H       1  ZINC000430767928    0.1000
@<TRIPOS>BOND
     1     1     2    2
     2     2    18   am
     3     2     3    1
     4     3     4    1
     5     3    15    1
     6     3     5    1
     7     5     6    1
     8     5    29    1
     9     5    30    1
    10     6     7    1
    11     6     8    1
    12     6    14    1
    13     8    13    1
    14     8     9    1
    15     8    31    1
    16     9    10    1
    17     9    32    1
    18     9    33    1
    19    10    11    1
    20    10    34    1
    21    10    35    1
    22    11    12    1
    23    11    36    1
    24    11    37    1
    25    12    13    1
    26    12    38    1
    27    12    39    1
    28    13    40    1
    29    13    41    1
    30    14    15    1
    31    14    42    1
    32    14    43    1
    33    15    16   am
    34    16    17    2
    35    16    18   am
    36    18    19    1
    37    19    20    1
    38    19    21    1
    39    19    26    1
    40    21    25    1
    41    21    22    2
    42    22    23    1
    43    22    44    1
    44    23    24    2
    45    23    45    1
    46    24    25    1
    47    24    46    1
    48    26    28    1
    49    26    27    1
    50    26    47    1
    51    27    28    1
    52    27    48    1
    53    27    49    1
    54    28    50    1
    55    28    51    1
@<TRIPOS>SUBSTRUCTURE
     1 ZINC000430767928        1 TEMP              0 ****  ****    0 ROOT


##########                                Name:    ZINC000098105561
##########                DOCK_Rotatable_Bonds:                   5
##########                         Heavy_Atoms:                  25
##########                    Molecular_Weight:             368.336
##########                DOCK_Rotatable_Bonds:                   5
##########                       Formal_Charge:         2.98023e-08
##########                     HBond_Acceptors:                   9
##########                        HBond_Donors:                   0
##########                         Heavy_Atoms:                  25
##########                          Grid_Score:          -30.133232
##########                     Grid_vdw_energy:          -29.942469
##########                      Grid_es_energy:           -0.190763
##########           Internal_energy_repulsive:            8.607496

@<TRIPOS>MOLECULE
ZINC000098105561
 36 38 1 0 0
SMALL
USER_CHARGES


@<TRIPOS>ATOM
      1 C1        -14.8781   -1.5179   59.6520 C.3     1  ZINC000098105561   -0.0800
      2 C2        -14.6312   -2.6190   58.6533 C.2     1  ZINC000098105561    0.0900
      3 C3        -15.0774   -3.8651   58.8281 C.2     1  ZINC000098105561   -0.2700
      4 S4        -14.5747   -4.8250   57.4391 S.3     1  ZINC000098105561    0.1600
      5 C5        -13.8117   -3.4560   56.7561 C.2     1  ZINC000098105561    0.2500
      6 N6        -13.1357   -3.4447   55.5440 N.am    1  ZINC000098105561   -0.5200
      7 C7        -13.8700   -3.6542   54.2938 C.3     1  ZINC000098105561    0.0500
      8 C8        -14.3933   -2.3119   53.7787 C.3     1  ZINC000098105561    0.4400
      9 F9        -13.3243   -1.5476   53.2988 F       1  ZINC000098105561   -0.1700
     10 F10       -15.3090   -2.5341   52.7446 F       1  ZINC000098105561   -0.1700
     11 F11       -15.0253   -1.6265   54.8218 F       1  ZINC000098105561   -0.1700
     12 C12       -11.8036   -3.2411   55.5171 C.2     1  ZINC000098105561    0.5800
     13 O13       -11.2118   -3.2312   54.4559 O.2     1  ZINC000098105561   -0.4100
     14 C14       -11.0611   -3.0294   56.7810 C.2     1  ZINC000098105561    0.0800
     15 C15       -10.6432   -4.1147   57.4782 C.2     1  ZINC000098105561   -0.2000
     16 C16        -9.9201   -3.8946   58.7422 C.2     1  ZINC000098105561    0.4200
     17 O17        -9.3214   -4.7921   59.3083 O.2     1  ZINC000098105561   -0.4300
     18 C18        -9.9639   -2.5207   59.2825 C.ar    1  ZINC000098105561   -0.2200
     19 C19        -9.5464   -2.2351   60.5806 C.ar    1  ZINC000098105561   -0.0300
     20 C20        -9.6108   -0.9391   61.0443 C.ar    1  ZINC000098105561   -0.1400
     21 C21       -10.0887    0.0732   60.2244 C.ar    1  ZINC000098105561   -0.0500
     22 C22       -10.5024   -0.1966   58.9378 C.ar    1  ZINC000098105561   -0.1400
     23 C23       -10.4430   -1.4966   58.4466 C.ar    1  ZINC000098105561    0.1400
     24 O24       -10.8259   -1.7734   57.1844 O.3     1  ZINC000098105561   -0.2300
     25 N25       -13.9614   -2.4283   57.5327 N.2     1  ZINC000098105561   -0.4600
     26 H26       -15.8124   -1.0110   59.4105 H       1  ZINC000098105561    0.0800
     27 H27       -14.9440   -1.9435   60.6533 H       1  ZINC000098105561    0.0800
     28 H28       -14.0566   -0.8024   59.6146 H       1  ZINC000098105561    0.0800
     29 H29       -15.6465   -4.2222   59.6736 H       1  ZINC000098105561    0.1900
     30 H30       -13.2045   -4.0938   53.5508 H       1  ZINC000098105561    0.1700
     31 H31       -14.7089   -4.3265   54.4733 H       1  ZINC000098105561    0.1400
     32 H32       -10.8356   -5.1139   57.1164 H       1  ZINC000098105561    0.1800
     33 H33        -9.1755   -3.0235   61.2187 H       1  ZINC000098105561    0.1400
     34 H34        -9.2885   -0.7106   62.0495 H       1  ZINC000098105561    0.1400
     35 H35       -10.1375    1.0849   60.5992 H       1  ZINC000098105561    0.1400
     36 H36       -10.8722    0.6012   58.3108 H       1  ZINC000098105561    0.1400
@<TRIPOS>BOND
     1     1     2    1
     2     1    26    1
     3     1    27    1
     4     1    28    1
     5     2    25    1
     6     2     3    2
     7     3     4    1
     8     3    29    1
     9     4     5    1
    10     5     6    1
    11     5    25    2
    12     6     7    1
    13     6    12   am
    14     7     8    1
    15     7    30    1
    16     7    31    1
    17     8     9    1
    18     8    10    1
    19     8    11    1
    20    12    13    2
    21    12    14    1
    22    14    24    1
    23    14    15    2
    24    15    16    1
    25    15    32    1
    26    16    17    2
    27    16    18    1
    28    18    23   ar
    29    18    19   ar
    30    19    20   ar
    31    19    33    1
    32    20    21   ar
    33    20    34    1
    34    21    22   ar
    35    21    35    1
    36    22    23   ar
    37    22    36    1
    38    23    24    1
@<TRIPOS>SUBSTRUCTURE
     1 ZINC000098105561        1 TEMP              0 ****  ****    0 ROOT


##########                                Name:    ZINC001625935330
##########                DOCK_Rotatable_Bonds:                   5
##########                         Heavy_Atoms:                  25
##########                    Molecular_Weight:             327.385
##########                DOCK_Rotatable_Bonds:                   5
##########                       Formal_Charge:           0.0199995
##########                     HBond_Acceptors:                   4
##########                        HBond_Donors:                   1
##########                         Heavy_Atoms:                  25
##########                          Grid_Score:          -30.111168
##########                     Grid_vdw_energy:          -28.972532
##########                      Grid_es_energy:           -1.138636
##########           Internal_energy_repulsive:           15.968377

@<TRIPOS>MOLECULE
ZINC001625935330
 42 44 1 0 0
SMALL
USER_CHARGES


@<TRIPOS>ATOM
      1 C1         -5.5672    4.6978   52.8741 C.3     1  ZINC001625935330   -0.1600
      2 C2         -4.2791    3.8924   52.6920 C.3     1  ZINC001625935330    0.1800
      3 H3         -3.4989    4.5403   52.2922 H       1  ZINC001625935330    0.1000
      4 N4         -3.8520    3.3551   53.9862 N.am    1  ZINC001625935330   -0.7100
      5 C5         -2.5584    3.4358   54.3557 C.2     1  ZINC001625935330    0.5800
      6 O6         -1.7460    3.9528   53.6146 O.2     1  ZINC001625935330   -0.5300
      7 C7         -2.1268    2.8940   55.6655 C.ar    1  ZINC001625935330    0.0800
      8 C8         -0.7710    2.8138   55.9643 C.ar    1  ZINC001625935330   -0.1000
      9 C9         -0.3814    2.3007   57.2046 C.ar    1  ZINC001625935330    0.0000
     10 C10         1.0531    2.1961   57.5686 C.ar    1  ZINC001625935330   -0.0600
     11 C11         2.0344    2.6156   56.6725 C.ar    1  ZINC001625935330   -0.1000
     12 C12         3.3673    2.5165   57.0165 C.ar    1  ZINC001625935330   -0.1200
     13 C13         3.7299    2.0018   58.2482 C.ar    1  ZINC001625935330   -0.1100
     14 C14         2.7600    1.5838   59.1417 C.ar    1  ZINC001625935330   -0.1200
     15 C15         1.4240    1.6833   58.8102 C.ar    1  ZINC001625935330   -0.1000
     16 C16        -1.3782    1.8892   58.0927 C.ar    1  ZINC001625935330   -0.1400
     17 C17        -2.7052    2.0026   57.7180 C.ar    1  ZINC001625935330    0.1100
     18 N18        -3.0388    2.4949   56.5446 N.ar    1  ZINC001625935330   -0.4600
     19 C19        -4.5283    2.7561   51.7339 C.ar    1  ZINC001625935330   -0.0900
     20 C20        -3.8519    2.7091   50.5281 C.ar    1  ZINC001625935330   -0.0800
     21 C21        -4.0748    1.6693   49.6426 C.ar    1  ZINC001625935330   -0.1100
     22 C22        -4.9735    0.6717   49.9575 C.ar    1  ZINC001625935330   -0.0700
     23 C23        -5.6593    0.7125   51.1733 C.ar    1  ZINC001625935330   -0.0200
     24 C24        -6.5938   -0.3199   51.5071 C.1     1  ZINC001625935330    0.2500
     25 N25        -7.3352   -1.1390   51.7718 N.1     1  ZINC001625935330   -0.4100
     26 C26        -5.4261    1.7620   52.0642 C.ar    1  ZINC001625935330   -0.0600
     27 H27        -5.8849    5.0976   51.9111 H       1  ZINC001625935330    0.0700
     28 H28        -6.3472    4.0500   53.2738 H       1  ZINC001625935330    0.0600
     29 H29        -5.3869    5.5196   53.5670 H       1  ZINC001625935330    0.0700
     30 H30        -4.5003    2.9413   54.5773 H       1  ZINC001625935330    0.4100
     31 H31        -0.0312    3.1425   55.2495 H       1  ZINC001625935330    0.1500
     32 H32         1.7524    3.0173   55.7104 H       1  ZINC001625935330    0.1300
     33 H33         4.1286    2.8410   56.3227 H       1  ZINC001625935330    0.1300
     34 H34         4.7741    1.9256   58.5133 H       1  ZINC001625935330    0.1300
     35 H35         3.0487    1.1825   60.1018 H       1  ZINC001625935330    0.1300
     36 H36         0.6675    1.3570   59.5086 H       1  ZINC001625935330    0.1300
     37 H37        -1.1160    1.4871   59.0601 H       1  ZINC001625935330    0.1400
     38 H38        -3.4794    1.6855   58.4011 H       1  ZINC001625935330    0.1700
     39 H39        -3.1472    3.4878   50.2765 H       1  ZINC001625935330    0.1300
     40 H40        -3.5440    1.6392   48.7025 H       1  ZINC001625935330    0.1400
     41 H41        -5.1467   -0.1391   49.2654 H       1  ZINC001625935330    0.1400
     42 H42        -5.9532    1.7996   53.0061 H       1  ZINC001625935330    0.1400
@<TRIPOS>BOND
     1     1     2    1
     2     1    27    1
     3     1    28    1
     4     1    29    1
     5     2     3    1
     6     2     4    1
     7     2    19    1
     8     4     5   am
     9     4    30    1
    10     5     6    2
    11     5     7    1
    12     7    18   ar
    13     7     8   ar
    14     8     9   ar
    15     8    31    1
    16     9    10    1
    17     9    16   ar
    18    10    15   ar
    19    10    11   ar
    20    11    12   ar
    21    11    32    1
    22    12    13   ar
    23    12    33    1
    24    13    14   ar
    25    13    34    1
    26    14    15   ar
    27    14    35    1
    28    15    36    1
    29    16    17   ar
    30    16    37    1
    31    17    18   ar
    32    17    38    1
    33    19    26   ar
    34    19    20   ar
    35    20    21   ar
    36    20    39    1
    37    21    22   ar
    38    21    40    1
    39    22    23   ar
    40    22    41    1
    41    23    24    1
    42    23    26   ar
    43    24    25    3
    44    26    42    1
@<TRIPOS>SUBSTRUCTURE
     1 ZINC001625935330        1 TEMP              0 ****  ****    0 ROOT


##########                                Name:    ZINC001023148918
##########                DOCK_Rotatable_Bonds:                   6
##########                         Heavy_Atoms:                  25
##########                    Molecular_Weight:             348.402
##########                DOCK_Rotatable_Bonds:                   6
##########                       Formal_Charge:           0.0199999
##########                     HBond_Acceptors:                   8
##########                        HBond_Donors:                   2
##########                         Heavy_Atoms:                  25
##########                          Grid_Score:          -30.087980
##########                     Grid_vdw_energy:          -27.864367
##########                      Grid_es_energy:           -2.223614
##########           Internal_energy_repulsive:           13.577395

@<TRIPOS>MOLECULE
ZINC001023148918
 49 52 1 0 0
SMALL
USER_CHARGES


@<TRIPOS>ATOM
      1 C1         -5.8016    1.7203   65.8727 C.3     1  ZINC001023148918   -0.0700
      2 C2         -7.2465    1.5082   65.5005 C.2     1  ZINC001023148918    0.0200
      3 N3         -8.2855    1.9402   66.1684 N.2     1  ZINC001023148918   -0.2700
      4 N4         -9.3790    1.5944   65.5901 N.pl3   1  ZINC001023148918   -0.2500
      5 C5        -10.7257    1.9135   66.0704 C.3     1  ZINC001023148918    0.0800
      6 C6         -9.0945    0.8836   64.4588 C.2     1  ZINC001023148918   -0.0400
      7 C7        -10.0617    0.3064   63.5117 C.2     1  ZINC001023148918    0.6000
      8 O8        -11.2528    0.3553   63.7533 O.2     1  ZINC001023148918   -0.5300
      9 N9         -9.6278   -0.2763   62.3765 N.am    1  ZINC001023148918   -0.7000
     10 C10       -10.5907   -0.8509   61.4338 C.3     1  ZINC001023148918    0.1500
     11 H11       -11.4118   -1.3343   61.9631 H       1  ZINC001023148918    0.1200
     12 C12        -9.8964   -1.8398   60.4643 C.3     1  ZINC001023148918    0.1000
     13 N13       -10.7533   -1.8568   59.2648 N.am    1  ZINC001023148918   -0.6200
     14 C14       -10.8303   -2.8606   58.3687 C.2     1  ZINC001023148918    0.5400
     15 O15       -10.1555   -3.8576   58.5155 O.2     1  ZINC001023148918   -0.5200
     16 C16       -11.7547   -2.7439   57.1843 C.3     1  ZINC001023148918   -0.1400
     17 H17       -11.6447   -1.7713   56.7047 H       1  ZINC001023148918    0.1100
     18 C18       -13.2258   -2.9828   57.6102 C.3     1  ZINC001023148918   -0.1400
     19 C19       -13.6240   -4.2423   56.7836 C.3     1  ZINC001023148918    0.0600
     20 H20       -14.4653   -4.8128   57.1773 H       1  ZINC001023148918    0.1300
     21 C21       -13.7855   -3.7389   55.3179 C.3     1  ZINC001023148918   -0.1500
     22 C22       -12.3204   -3.4887   54.8777 C.3     1  ZINC001023148918   -0.1500
     23 C23       -11.4948   -3.8942   56.1658 C.3     1  ZINC001023148918    0.0900
     24 H24       -10.4513   -4.1550   55.9890 H       1  ZINC001023148918    0.1400
     25 O25       -12.3465   -4.9573   56.7191 O.3     1  ZINC001023148918   -0.3600
     26 C26       -11.5106   -0.5979   59.2086 C.3     1  ZINC001023148918    0.0700
     27 C27       -11.1202    0.2283   60.4527 C.3     1  ZINC001023148918    0.0900
     28 H28       -10.3361    0.9451   60.2092 H       1  ZINC001023148918    0.0800
     29 O29       -12.2616    0.8953   60.9953 O.3     1  ZINC001023148918   -0.5500
     30 C30        -7.7143    0.8208   64.3782 C.2     1  ZINC001023148918   -0.1800
     31 H31        -5.4425    2.6456   65.4225 H       1  ZINC001023148918    0.0800
     32 H32        -5.7115    1.7848   66.9571 H       1  ZINC001023148918    0.0700
     33 H33        -5.2059    0.8835   65.5077 H       1  ZINC001023148918    0.0800
     34 H34       -11.0197    2.8961   65.7012 H       1  ZINC001023148918    0.0900
     35 H35       -11.4283    1.1637   65.7068 H       1  ZINC001023148918    0.1100
     36 H36       -10.7312    1.9183   67.1603 H       1  ZINC001023148918    0.0900
     37 H37        -8.6780   -0.3153   62.1839 H       1  ZINC001023148918    0.4100
     38 H38        -8.8972   -1.4850   60.2117 H       1  ZINC001023148918    0.0800
     39 H39        -9.8457   -2.8340   60.9086 H       1  ZINC001023148918    0.0900
     40 H40       -13.2901   -3.1863   58.6791 H       1  ZINC001023148918    0.0800
     41 H41       -13.8493   -2.1306   57.3400 H       1  ZINC001023148918    0.0900
     42 H42       -14.2503   -4.5039   54.6959 H       1  ZINC001023148918    0.0800
     43 H43       -14.3609   -2.8136   55.2886 H       1  ZINC001023148918    0.0800
     44 H44       -12.0553   -4.1289   54.0363 H       1  ZINC001023148918    0.0800
     45 H45       -12.1659   -2.4387   54.6291 H       1  ZINC001023148918    0.0800
     46 H46       -11.2515   -0.0496   58.3028 H       1  ZINC001023148918    0.0800
     47 H47       -12.5801   -0.8076   59.2243 H       1  ZINC001023148918    0.0900
     48 H48       -12.0915    1.3478   61.8327 H       1  ZINC001023148918    0.3900
     49 H49        -7.1243    0.3374   63.6136 H       1  ZINC001023148918    0.1600
@<TRIPOS>BOND
     1     1     2    1
     2     1    31    1
     3     1    32    1
     4     1    33    1
     5     2    30    1
     6     2     3    2
     7     3     4    1
     8     4     5    1
     9     4     6    1
    10     5    34    1
    11     5    35    1
    12     5    36    1
    13     6     7    1
    14     6    30    2
    15     7     8    2
    16     7     9   am
    17     9    10    1
    18     9    37    1
    19    10    11    1
    20    10    27    1
    21    10    12    1
    22    12    13    1
    23    12    38    1
    24    12    39    1
    25    13    14   am
    26    13    26    1
    27    14    15    2
    28    14    16    1
    29    16    17    1
    30    16    23    1
    31    16    18    1
    32    18    19    1
    33    18    40    1
    34    18    41    1
    35    19    20    1
    36    19    25    1
    37    19    21    1
    38    21    22    1
    39    21    42    1
    40    21    43    1
    41    22    23    1
    42    22    44    1
    43    22    45    1
    44    23    24    1
    45    23    25    1
    46    26    27    1
    47    26    46    1
    48    26    47    1
    49    27    28    1
    50    27    29    1
    51    29    48    1
    52    30    49    1
@<TRIPOS>SUBSTRUCTURE
     1 ZINC001023148918        1 TEMP              0 ****  ****    0 ROOT


##########                                Name:    ZINC000464706598
##########                DOCK_Rotatable_Bonds:                   4
##########                         Heavy_Atoms:                  26
##########                    Molecular_Weight:             412.286
##########                DOCK_Rotatable_Bonds:                   4
##########                       Formal_Charge:           0.0100001
##########                     HBond_Acceptors:                   5
##########                        HBond_Donors:                   0
##########                         Heavy_Atoms:                  26
##########                          Grid_Score:          -30.072273
##########                     Grid_vdw_energy:          -30.808781
##########                      Grid_es_energy:            0.736508
##########           Internal_energy_repulsive:           58.314175

@<TRIPOS>MOLECULE
ZINC000464706598
 44 47 1 0 0
SMALL
USER_CHARGES


@<TRIPOS>ATOM
      1 O1        -10.7038   -0.2699   56.0008 O.2     1  ZINC000464706598   -0.5000
      2 C2        -10.4864   -0.4689   54.8209 C.2     1  ZINC000464706598    0.5900
      3 C3         -9.7548    0.5346   54.0266 C.2     1  ZINC000464706598   -0.2800
      4 C4         -8.5452    0.3501   53.3868 C.2     1  ZINC000464706598    0.1300
      5 N5         -8.2313    1.5086   52.7793 N.pl3   1  ZINC000464706598   -0.3100
      6 C6         -7.0794    1.7483   52.0173 C.ar    1  ZINC000464706598    0.1700
      7 C7         -6.4378    0.6965   51.3770 C.ar    1  ZINC000464706598   -0.1300
      8 C8         -5.3033    0.9355   50.6266 C.ar    1  ZINC000464706598   -0.0600
      9 C9         -4.8056    2.2215   50.5129 C.ar    1  ZINC000464706598   -0.1000
     10 Br10       -3.2516    2.5449   49.4851 Br      1  ZINC000464706598   -0.0400
     11 C11        -5.4434    3.2715   51.1496 C.ar    1  ZINC000464706598   -0.0700
     12 C12        -6.5812    3.0387   51.8970 C.ar    1  ZINC000464706598   -0.1100
     13 N13        -9.2494    2.4337   53.0360 N.2     1  ZINC000464706598   -0.2800
     14 C14       -10.1631    1.8635   53.7725 C.2     1  ZINC000464706598    0.0700
     15 N15       -10.9094   -1.6096   54.2408 N.am    1  ZINC000464706598   -0.6100
     16 C16       -10.6527   -1.8754   52.8165 C.3     1  ZINC000464706598    0.0400
     17 C17       -11.9749   -2.2793   52.1542 C.3     1  ZINC000464706598    0.0500
     18 O18       -12.5701   -3.3430   52.9013 O.3     1  ZINC000464706598   -0.3700
     19 C19       -12.9153   -2.9933   54.2438 C.3     1  ZINC000464706598    0.0500
     20 C20       -11.6364   -2.6285   55.0146 C.3     1  ZINC000464706598    0.1600
     21 H21       -11.0158   -3.5162   55.1372 H       1  ZINC000464706598    0.0900
     22 C22       -12.0001   -2.0728   56.3673 C.ar    1  ZINC000464706598   -0.0500
     23 C23       -11.2379   -2.3953   57.4747 C.ar    1  ZINC000464706598   -0.1000
     24 C24       -11.5714   -1.8856   58.7155 C.ar    1  ZINC000464706598   -0.1100
     25 C25       -12.6669   -1.0532   58.8491 C.ar    1  ZINC000464706598   -0.1200
     26 C26       -13.4285   -0.7300   57.7417 C.ar    1  ZINC000464706598   -0.1100
     27 C27       -13.0924   -1.2361   56.5001 C.ar    1  ZINC000464706598   -0.1000
     28 H28        -7.9589   -0.5568   53.3766 H       1  ZINC000464706598    0.1900
     29 H29        -6.8254   -0.3076   51.4660 H       1  ZINC000464706598    0.1400
     30 H30        -4.8038    0.1177   50.1284 H       1  ZINC000464706598    0.1500
     31 H31        -5.0532    4.2744   51.0591 H       1  ZINC000464706598    0.1500
     32 H32        -7.0789    3.8586   52.3935 H       1  ZINC000464706598    0.1500
     33 H33       -11.0698    2.3279   54.1308 H       1  ZINC000464706598    0.2100
     34 H34       -10.2629   -0.9761   52.3396 H       1  ZINC000464706598    0.1200
     35 H35        -9.9305   -2.6859   52.7187 H       1  ZINC000464706598    0.0800
     36 H36       -12.6501   -1.4238   52.1376 H       1  ZINC000464706598    0.0600
     37 H37       -11.7841   -2.6133   51.1343 H       1  ZINC000464706598    0.1100
     38 H38       -13.5939   -2.1403   54.2349 H       1  ZINC000464706598    0.0600
     39 H39       -13.4010   -3.8409   54.7274 H       1  ZINC000464706598    0.1100
     40 H40       -10.3820   -3.0457   57.3703 H       1  ZINC000464706598    0.1100
     41 H41       -10.9764   -2.1381   59.5808 H       1  ZINC000464706598    0.1200
     42 H42       -12.9279   -0.6555   59.8187 H       1  ZINC000464706598    0.1200
     43 H43       -14.2846   -0.0798   57.8461 H       1  ZINC000464706598    0.1200
     44 H44       -13.6875   -0.9836   55.6348 H       1  ZINC000464706598    0.1100
@<TRIPOS>BOND
     1     1     2    2
     2     2     3    1
     3     2    15   am
     4     3    14    1
     5     3     4    2
     6     4     5    1
     7     4    28    1
     8     5     6    1
     9     5    13    1
    10     6    12   ar
    11     6     7   ar
    12     7     8   ar
    13     7    29    1
    14     8     9   ar
    15     8    30    1
    16     9    10    1
    17     9    11   ar
    18    11    12   ar
    19    11    31    1
    20    12    32    1
    21    13    14    2
    22    14    33    1
    23    15    20    1
    24    15    16    1
    25    16    17    1
    26    16    34    1
    27    16    35    1
    28    17    18    1
    29    17    36    1
    30    17    37    1
    31    18    19    1
    32    19    20    1
    33    19    38    1
    34    19    39    1
    35    20    21    1
    36    20    22    1
    37    22    27   ar
    38    22    23   ar
    39    23    24   ar
    40    23    40    1
    41    24    25   ar
    42    24    41    1
    43    25    26   ar
    44    25    42    1
    45    26    27   ar
    46    26    43    1
    47    27    44    1
@<TRIPOS>SUBSTRUCTURE
     1 ZINC000464706598        1 TEMP              0 ****  ****    0 ROOT


##########                                Name:    ZINC001018118384
##########                DOCK_Rotatable_Bonds:                   5
##########                         Heavy_Atoms:                  25
##########                    Molecular_Weight:             347.374
##########                DOCK_Rotatable_Bonds:                   5
##########                       Formal_Charge:           0.0299997
##########                     HBond_Acceptors:                   9
##########                        HBond_Donors:                   2
##########                         Heavy_Atoms:                  25
##########                          Grid_Score:          -30.030727
##########                     Grid_vdw_energy:          -29.778891
##########                      Grid_es_energy:           -0.251837
##########           Internal_energy_repulsive:           97.302650

@<TRIPOS>MOLECULE
ZINC001018118384
 46 48 1 0 0
SMALL
USER_CHARGES


@<TRIPOS>ATOM
      1 C1         -8.5620    1.2905   54.2707 C.3     1  ZINC001018118384   -0.0700
      2 C2         -9.7060    0.3728   53.9242 C.2     1  ZINC001018118384    0.2200
      3 N3        -10.7809    0.2019   54.6383 N.2     1  ZINC001018118384   -0.4600
      4 C4        -11.5847   -0.6963   54.0137 C.2     1  ZINC001018118384   -0.0700
      5 C5        -12.8970   -1.1684   54.4885 C.2     1  ZINC001018118384    0.6100
      6 O6        -13.8589   -0.4248   54.4563 O.2     1  ZINC001018118384   -0.5400
      7 N7        -13.0315   -2.4243   54.9586 N.am    1  ZINC001018118384   -0.5900
      8 C8        -11.8775   -3.3323   55.0094 C.3     1  ZINC001018118384    0.0700
      9 C9        -11.7417   -3.8777   56.4344 C.3     1  ZINC001018118384    0.1300
     10 H10       -10.9492   -4.6256   56.4637 H       1  ZINC001018118384    0.1100
     11 N11       -11.4129   -2.7810   57.3484 N.am    1  ZINC001018118384   -0.7000
     12 C12       -10.5733   -2.9931   58.3811 C.2     1  ZINC001018118384    0.6000
     13 O13       -10.0901   -4.0942   58.5549 O.2     1  ZINC001018118384   -0.4900
     14 C14       -10.2393   -1.8832   59.3047 C.2     1  ZINC001018118384    0.0300
     15 C15       -10.3642   -0.5506   59.0461 C.2     1  ZINC001018118384   -0.2300
     16 C16        -9.9169    0.0761   60.2432 C.2     1  ZINC001018118384    0.4800
     17 O17        -9.8541    1.2732   60.4688 O.2     1  ZINC001018118384   -0.5200
     18 N18        -9.5780   -0.9282   61.0763 N.am    1  ZINC001018118384   -0.4500
     19 C19        -9.0613   -0.7431   62.4346 C.3     1  ZINC001018118384    0.1100
     20 O20        -9.7634   -2.0027   60.5534 O.3     1  ZINC001018118384    0.0000
     21 C21       -13.0648   -4.5186   56.8595 C.3     1  ZINC001018118384   -0.1300
     22 C22       -14.1716   -3.4617   56.8502 C.3     1  ZINC001018118384   -0.1300
     23 C23       -14.3337   -2.9096   55.4356 C.3     1  ZINC001018118384    0.1400
     24 H24       -14.6877   -3.6997   54.7733 H       1  ZINC001018118384    0.0700
     25 C25       -15.3426   -1.7593   55.4464 C.3     1  ZINC001018118384   -0.1400
     26 C26       -10.9561   -1.0818   52.8659 C.2     1  ZINC001018118384    0.0400
     27 N27        -9.7847   -0.4051   52.8133 N.pl3   1  ZINC001018118384   -0.5600
     28 H28        -8.7486    2.2786   53.8500 H       1  ZINC001018118384    0.0900
     29 H29        -8.4736    1.3679   55.3543 H       1  ZINC001018118384    0.1000
     30 H30        -7.6364    0.8889   53.8583 H       1  ZINC001018118384    0.0800
     31 H31       -12.0316   -4.1584   54.3151 H       1  ZINC001018118384    0.0800
     32 H32       -10.9726   -2.7885   54.7383 H       1  ZINC001018118384    0.1500
     33 H33       -11.7996   -1.9022   57.2104 H       1  ZINC001018118384    0.4100
     34 H34       -10.7199   -0.0794   58.1417 H       1  ZINC001018118384    0.1900
     35 H35        -9.8926   -0.7160   63.1390 H       1  ZINC001018118384    0.0800
     36 H36        -8.3979   -1.5704   62.6870 H       1  ZINC001018118384    0.0900
     37 H37        -8.5088    0.1950   62.4884 H       1  ZINC001018118384    0.1100
     38 H38       -13.3206   -5.3184   56.1645 H       1  ZINC001018118384    0.0900
     39 H39       -12.9632   -4.9293   57.8640 H       1  ZINC001018118384    0.0800
     40 H40       -15.1088   -3.9135   57.1755 H       1  ZINC001018118384    0.0800
     41 H41       -13.9048   -2.6496   57.5265 H       1  ZINC001018118384    0.0600
     42 H42       -14.9942   -0.9770   56.1206 H       1  ZINC001018118384    0.0700
     43 H43       -15.4419   -1.3537   54.4396 H       1  ZINC001018118384    0.0800
     44 H44       -16.3103   -2.1279   55.7867 H       1  ZINC001018118384    0.0400
     45 H45       -11.3244   -1.7881   52.1366 H       1  ZINC001018118384    0.1900
     46 H46        -9.1181   -0.4693   52.1116 H       1  ZINC001018118384    0.4300
@<TRIPOS>BOND
     1     1     2    1
     2     1    28    1
     3     1    29    1
     4     1    30    1
     5     2    27    1
     6     2     3    2
     7     3     4    1
     8     4     5    1
     9     4    26    2
    10     5     6    2
    11     5     7   am
    12     7    23    1
    13     7     8    1
    14     8     9    1
    15     8    31    1
    16     8    32    1
    17     9    10    1
    18     9    11    1
    19     9    21    1
    20    11    12   am
    21    11    33    1
    22    12    13    2
    23    12    14    1
    24    14    20    1
    25    14    15    2
    26    15    16    1
    27    15    34    1
    28    16    17    2
    29    16    18   am
    30    18    19    1
    31    18    20    1
    32    19    35    1
    33    19    36    1
    34    19    37    1
    35    21    22    1
    36    21    38    1
    37    21    39    1
    38    22    23    1
    39    22    40    1
    40    22    41    1
    41    23    24    1
    42    23    25    1
    43    25    42    1
    44    25    43    1
    45    25    44    1
    46    26    27    1
    47    26    45    1
    48    27    46    1
@<TRIPOS>SUBSTRUCTURE
     1 ZINC001018118384        1 TEMP              0 ****  ****    0 ROOT


##########                                Name:    ZINC000055987960
##########                DOCK_Rotatable_Bonds:                   6
##########                         Heavy_Atoms:                  28
##########                    Molecular_Weight:             404.868
##########                DOCK_Rotatable_Bonds:                   6
##########                       Formal_Charge:          0.00999941
##########                     HBond_Acceptors:                   7
##########                        HBond_Donors:                   1
##########                         Heavy_Atoms:                  28
##########                          Grid_Score:          -29.998205
##########                     Grid_vdw_energy:          -29.504185
##########                      Grid_es_energy:           -0.494020
##########           Internal_energy_repulsive:           17.311579

@<TRIPOS>MOLECULE
ZINC000055987960
 50 52 1 0 0
SMALL
USER_CHARGES


@<TRIPOS>ATOM
      1 C1         -8.5813    3.3383   50.8843 C.3     1  ZINC000055987960   -0.1800
      2 C2         -7.3937    3.6670   51.7912 C.3     1  ZINC000055987960    0.0700
      3 H3         -7.4764    4.6963   52.1404 H       1  ZINC000055987960    0.1200
      4 C4         -7.3897    2.7170   52.9942 C.3     1  ZINC000055987960    0.0800
      5 N5         -7.0915    1.3590   52.5121 N.am    1  ZINC000055987960   -0.6100
      6 C6         -7.8701    0.3141   52.8560 C.2     1  ZINC000055987960    0.5700
      7 O7         -7.6072   -0.8004   52.4474 O.2     1  ZINC000055987960   -0.5300
      8 C8         -9.0421    0.5227   53.7286 C.ar    1  ZINC000055987960   -0.1500
      9 C9        -10.3258    0.2333   53.2581 C.ar    1  ZINC000055987960   -0.0700
     10 C10       -11.4168    0.4287   54.0747 C.ar    1  ZINC000055987960   -0.1500
     11 C11       -11.2424    0.9135   55.3672 C.ar    1  ZINC000055987960    0.1700
     12 N12       -12.3496    1.1097   56.1918 N.am    1  ZINC000055987960   -0.6700
     13 C13       -12.7484    0.1314   57.0286 C.2     1  ZINC000055987960    0.5200
     14 O14       -12.1443   -0.9197   57.0644 O.2     1  ZINC000055987960   -0.5000
     15 C15       -13.9450    0.3434   57.9199 C.3     1  ZINC000055987960   -0.1100
     16 C16       -14.3339   -0.9651   58.5584 C.ar    1  ZINC000055987960   -0.1000
     17 C17       -14.2403   -1.1209   59.9305 C.ar    1  ZINC000055987960    0.1300
     18 F18       -13.8000   -0.1000   60.6982 F       1  ZINC000055987960   -0.1300
     19 C19       -14.5985   -2.3237   60.5160 C.ar    1  ZINC000055987960   -0.1500
     20 C20       -15.0490   -3.3674   59.7306 C.ar    1  ZINC000055987960   -0.0700
     21 C21       -15.1427   -3.2119   58.3600 C.ar    1  ZINC000055987960   -0.1200
     22 C22       -14.7902   -2.0093   57.7740 C.ar    1  ZINC000055987960    0.0000
     23 Cl23      -14.9087   -1.8148   56.0529 Cl      1  ZINC000055987960   -0.0500
     24 C24        -9.9658    1.2026   55.8387 C.ar    1  ZINC000055987960   -0.1200
     25 C25        -8.8701    1.0046   55.0291 C.ar    1  ZINC000055987960   -0.0500
     26 C26        -5.9182    1.1757   51.6431 C.3     1  ZINC000055987960    0.0600
     27 C27        -5.9939    2.2009   50.5059 C.3     1  ZINC000055987960    0.0700
     28 H28        -6.8350    1.9613   49.8552 H       1  ZINC000055987960    0.0700
     29 C29        -4.6955    2.1642   49.6974 C.3     1  ZINC000055987960   -0.1500
     30 O30        -6.1759    3.5073   51.0598 O.3     1  ZINC000055987960   -0.3700
     31 H31        -8.4981    2.3089   50.5355 H       1  ZINC000055987960    0.0600
     32 H32        -9.5095    3.4586   51.4431 H       1  ZINC000055987960    0.0700
     33 H33        -8.5825    4.0129   50.0283 H       1  ZINC000055987960    0.0700
     34 H34        -6.6261    3.0297   53.7064 H       1  ZINC000055987960    0.0800
     35 H35        -8.3678    2.7293   53.4750 H       1  ZINC000055987960    0.1000
     36 H36       -10.4619   -0.1427   52.2549 H       1  ZINC000055987960    0.1400
     37 H37       -12.4092    0.2056   53.7117 H       1  ZINC000055987960    0.1300
     38 H38       -12.8327    1.9503   56.1631 H       1  ZINC000055987960    0.4200
     39 H39       -13.6960    1.0668   58.6964 H       1  ZINC000055987960    0.1200
     40 H40       -14.7780    0.7198   57.3263 H       1  ZINC000055987960    0.1200
     41 H41       -14.5253   -2.4461   61.5866 H       1  ZINC000055987960    0.1500
     42 H42       -15.3280   -4.3054   60.1875 H       1  ZINC000055987960    0.1500
     43 H43       -15.4946   -4.0283   57.7469 H       1  ZINC000055987960    0.1400
     44 H44        -9.8339    1.5792   56.8423 H       1  ZINC000055987960    0.1500
     45 H45        -7.8793    1.2291   55.3956 H       1  ZINC000055987960    0.1300
     46 H46        -5.0064    1.3333   52.2193 H       1  ZINC000055987960    0.0800
     47 H47        -5.9219    0.1674   51.2292 H       1  ZINC000055987960    0.1100
     48 H48        -4.5563    1.1675   49.2788 H       1  ZINC000055987960    0.0700
     49 H49        -4.7502    2.8934   48.8890 H       1  ZINC000055987960    0.0700
     50 H50        -3.8552    2.4056   50.3483 H       1  ZINC000055987960    0.0700
@<TRIPOS>BOND
     1     1     2    1
     2     1    31    1
     3     1    32    1
     4     1    33    1
     5     2     3    1
     6     2    30    1
     7     2     4    1
     8     4     5    1
     9     4    34    1
    10     4    35    1
    11     5     6   am
    12     5    26    1
    13     6     7    2
    14     6     8    1
    15     8    25   ar
    16     8     9   ar
    17     9    10   ar
    18     9    36    1
    19    10    11   ar
    20    10    37    1
    21    11    12    1
    22    11    24   ar
    23    12    13   am
    24    12    38    1
    25    13    14    2
    26    13    15    1
    27    15    16    1
    28    15    39    1
    29    15    40    1
    30    16    22   ar
    31    16    17   ar
    32    17    18    1
    33    17    19   ar
    34    19    20   ar
    35    19    41    1
    36    20    21   ar
    37    20    42    1
    38    21    22   ar
    39    21    43    1
    40    22    23    1
    41    24    25   ar
    42    24    44    1
    43    25    45    1
    44    26    27    1
    45    26    46    1
    46    26    47    1
    47    27    28    1
    48    27    29    1
    49    27    30    1
    50    29    48    1
    51    29    49    1
    52    29    50    1
@<TRIPOS>SUBSTRUCTURE
     1 ZINC000055987960        1 TEMP              0 ****  ****    0 ROOT


##########                                Name:    ZINC000518937710
##########                DOCK_Rotatable_Bonds:                   6
##########                         Heavy_Atoms:                  25
##########                    Molecular_Weight:             397.421
##########                DOCK_Rotatable_Bonds:                   6
##########                       Formal_Charge:          -0.0199997
##########                     HBond_Acceptors:                  11
##########                        HBond_Donors:                   0
##########                         Heavy_Atoms:                  25
##########                          Grid_Score:          -29.929712
##########                     Grid_vdw_energy:          -30.566658
##########                      Grid_es_energy:            0.636946
##########           Internal_energy_repulsive:           21.928898

@<TRIPOS>MOLECULE
ZINC000518937710
 42 44 1 0 0
SMALL
USER_CHARGES


@<TRIPOS>ATOM
      1 C1        -10.9056    2.3724   51.9401 C.3     1  ZINC000518937710   -0.1900
      2 C2         -9.6694    3.1512   51.4863 C.3     1  ZINC000518937710    0.1700
      3 H3         -9.1497    2.5884   50.7109 H       1  ZINC000518937710    0.1100
      4 C4        -10.0988    4.5100   50.9292 C.3     1  ZINC000518937710   -0.6600
      5 S5        -10.7434    4.2975   49.2470 S.o2    1  ZINC000518937710    2.4000
      6 C6        -12.4665    4.8321   49.4356 C.3     1  ZINC000518937710   -0.6600
      7 O7        -10.0770    5.2125   48.3879 O.2     1  ZINC000518937710   -0.9200
      8 O8        -10.7312    2.9126   48.9289 O.2     1  ZINC000518937710   -0.9300
      9 N9         -8.7729    3.3525   52.6273 N.am    1  ZINC000518937710   -0.9600
     10 C10        -9.3215    3.4453   53.9825 C.3     1  ZINC000518937710    0.0800
     11 C11        -8.7554    4.5300   54.9011 C.3     1  ZINC000518937710   -0.1800
     12 C12       -10.1635    4.6771   54.3210 C.3     1  ZINC000518937710   -0.1800
     13 S13        -7.1393    3.4754   52.3852 S.o2    1  ZINC000518937710    2.6900
     14 O14        -6.9531    4.4973   51.4154 O.2     1  ZINC000518937710   -0.9400
     15 O15        -6.5439    3.5102   53.6749 O.2     1  ZINC000518937710   -0.9400
     16 C16        -6.6091    1.9728   51.6328 C.ar    1  ZINC000518937710   -0.6400
     17 C17        -7.3501    0.8178   51.7993 C.ar    1  ZINC000518937710   -0.0300
     18 C18        -6.9372   -0.3629   51.2105 C.ar    1  ZINC000518937710   -0.1300
     19 C19        -5.7819   -0.3933   50.4521 C.ar    1  ZINC000518937710   -0.0300
     20 C20        -5.0342    0.7604   50.2809 C.ar    1  ZINC000518937710    0.0200
     21 C21        -5.4529    1.9509   50.8698 C.ar    1  ZINC000518937710    0.1900
     22 O22        -4.5565    2.9315   50.5565 O.3     1  ZINC000518937710   -0.2800
     23 C23        -3.3726    2.2425   50.1125 C.3     1  ZINC000518937710    0.5700
     24 F24        -2.7316    2.9677   49.1023 F       1  ZINC000518937710   -0.1200
     25 F25        -2.5017    2.0205   51.1846 F       1  ZINC000518937710   -0.1400
     26 O26        -3.8779    0.9960   49.5947 O.3     1  ZINC000518937710   -0.2900
     27 H27       -11.4049    2.9178   52.7409 H       1  ZINC000518937710    0.1000
     28 H28       -11.5894    2.2543   51.0996 H       1  ZINC000518937710    0.0800
     29 H29       -10.6031    1.3901   52.3032 H       1  ZINC000518937710    0.0700
     30 H30       -10.8758    4.9342   51.5651 H       1  ZINC000518937710    0.1600
     31 H31        -9.2404    5.1814   50.9073 H       1  ZINC000518937710    0.1400
     32 H32       -12.4924    5.8915   49.6904 H       1  ZINC000518937710    0.1300
     33 H33       -13.0016    4.6704   48.4998 H       1  ZINC000518937710    0.1300
     34 H34       -12.9409    4.2556   50.2297 H       1  ZINC000518937710    0.1300
     35 H35        -9.6089    2.4982   54.4392 H       1  ZINC000518937710    0.1500
     36 H36        -8.6701    4.2966   55.9625 H       1  ZINC000518937710    0.1100
     37 H37        -7.9748    5.1746   54.4971 H       1  ZINC000518937710    0.1000
     38 H38       -10.3093    5.4184   53.5354 H       1  ZINC000518937710    0.1000
     39 H39       -11.0046    4.5404   55.0007 H       1  ZINC000518937710    0.1000
     40 H40        -8.2533    0.8377   52.3911 H       1  ZINC000518937710    0.1600
     41 H41        -7.5183   -1.2634   51.3435 H       1  ZINC000518937710    0.1600
     42 H42        -5.4617   -1.3172   49.9932 H       1  ZINC000518937710    0.1500
@<TRIPOS>BOND
     1     1     2    1
     2     1    27    1
     3     1    28    1
     4     1    29    1
     5     2     3    1
     6     2     4    1
     7     2     9    1
     8     4     5    1
     9     4    30    1
    10     4    31    1
    11     5     6    1
    12     5     7    2
    13     5     8    2
    14     6    32    1
    15     6    33    1
    16     6    34    1
    17     9    10    1
    18     9    13   am
    19    10    12    1
    20    10    11    1
    21    10    35    1
    22    11    12    1
    23    11    36    1
    24    11    37    1
    25    12    38    1
    26    12    39    1
    27    13    14    2
    28    13    15    2
    29    13    16    1
    30    16    21   ar
    31    16    17   ar
    32    17    18   ar
    33    17    40    1
    34    18    19   ar
    35    18    41    1
    36    19    20   ar
    37    19    42    1
    38    20    26    1
    39    20    21   ar
    40    21    22    1
    41    22    23    1
    42    23    24    1
    43    23    25    1
    44    23    26    1
@<TRIPOS>SUBSTRUCTURE
     1 ZINC000518937710        1 TEMP              0 ****  ****    0 ROOT


##########                                Name:    ZINC000330515179
##########                DOCK_Rotatable_Bonds:                   4
##########                         Heavy_Atoms:                  21
##########                    Molecular_Weight:             378.287
##########                DOCK_Rotatable_Bonds:                   4
##########                       Formal_Charge:           0.0200002
##########                     HBond_Acceptors:                   6
##########                        HBond_Donors:                   0
##########                         Heavy_Atoms:                  21
##########                          Grid_Score:          -29.914593
##########                     Grid_vdw_energy:          -30.117577
##########                      Grid_es_energy:            0.202983
##########           Internal_energy_repulsive:            8.331015

@<TRIPOS>MOLECULE
ZINC000330515179
 41 42 1 0 0
SMALL
USER_CHARGES


@<TRIPOS>ATOM
      1 C1         -7.5848   -1.0639   51.6068 C.3     1  ZINC000330515179    0.0300
      2 O2         -7.1153    0.2232   51.2003 O.3     1  ZINC000330515179   -0.3800
      3 C3         -7.3608    1.2590   52.1535 C.3     1  ZINC000330515179    0.0700
      4 C4         -6.2424    2.3001   52.0746 C.3     1  ZINC000330515179    0.0800
      5 H5         -6.5938    3.1707   51.5207 H       1  ZINC000330515179    0.0800
      6 C6         -5.0287    1.6946   51.3602 C.3     1  ZINC000330515179    0.0900
      7 N7         -3.9088    2.6437   51.4624 N.am    1  ZINC000330515179   -1.0000
      8 S8         -3.0506    3.0973   50.1207 S.o2    1  ZINC000330515179    2.6900
      9 O9         -3.5271    2.2945   49.0494 O.2     1  ZINC000330515179   -0.9400
     10 O10        -3.0677    4.5179   50.0947 O.2     1  ZINC000330515179   -0.9500
     11 C11        -1.3746    2.6248   50.3893 C.ar    1  ZINC000330515179   -0.6700
     12 C12        -0.8397    1.5529   49.6992 C.ar    1  ZINC000330515179   -0.0100
     13 C13         0.4751    1.1821   49.9093 C.ar    1  ZINC000330515179   -0.1100
     14 C14         1.2558    1.8837   50.8102 C.ar    1  ZINC000330515179   -0.0400
     15 Br15        3.0550    1.3774   51.0976 Br      1  ZINC000330515179   -0.0300
     16 C16         0.7203    2.9562   51.5005 C.ar    1  ZINC000330515179   -0.1100
     17 C17        -0.5931    3.3295   51.2858 C.ar    1  ZINC000330515179   -0.0100
     18 C18        -3.5738    3.1775   52.7921 C.3     1  ZINC000330515179    0.1000
     19 C19        -4.8583    3.7108   53.4368 C.3     1  ZINC000330515179    0.1000
     20 C20        -4.5791    4.0942   54.8913 C.3     1  ZINC000330515179   -0.1400
     21 C21        -5.3431    4.9415   52.6678 C.3     1  ZINC000330515179   -0.1800
     22 O22        -5.8637    2.6951   53.3953 O.3     1  ZINC000330515179   -0.3500
     23 H23        -7.3606   -1.7946   50.8296 H       1  ZINC000330515179    0.0900
     24 H24        -7.0896   -1.3554   52.5331 H       1  ZINC000330515179    0.0400
     25 H25        -8.6621   -1.0236   51.7678 H       1  ZINC000330515179    0.0400
     26 H26        -8.3165    1.7352   51.9347 H       1  ZINC000330515179    0.0600
     27 H27        -7.3890    0.8313   53.1557 H       1  ZINC000330515179    0.0700
     28 H28        -4.7558    0.7522   51.8349 H       1  ZINC000330515179    0.0900
     29 H29        -5.2688    1.5217   50.3111 H       1  ZINC000330515179    0.1000
     30 H30        -1.4495    1.0049   48.9961 H       1  ZINC000330515179    0.1500
     31 H31         0.8928    0.3446   49.3704 H       1  ZINC000330515179    0.1500
     32 H32         1.3294    3.5043   52.2039 H       1  ZINC000330515179    0.1500
     33 H33        -1.0114    4.1668   51.8247 H       1  ZINC000330515179    0.1500
     34 H34        -3.1544    2.3844   53.4111 H       1  ZINC000330515179    0.0900
     35 H35        -2.8504    3.9866   52.6913 H       1  ZINC000330515179    0.1000
     36 H36        -3.8100    4.8659   54.9224 H       1  ZINC000330515179    0.0800
     37 H37        -5.4929    4.4733   55.3490 H       1  ZINC000330515179    0.0700
     38 H38        -4.2355    3.2166   55.4389 H       1  ZINC000330515179    0.0700
     39 H39        -5.5436    4.6672   51.6321 H       1  ZINC000330515179    0.0600
     40 H40        -6.2565    5.3200   53.1267 H       1  ZINC000330515179    0.0700
     41 H41        -4.5747    5.7140   52.6970 H       1  ZINC000330515179    0.0700
@<TRIPOS>BOND
     1     1     2    1
     2     1    23    1
     3     1    24    1
     4     1    25    1
     5     2     3    1
     6     3     4    1
     7     3    26    1
     8     3    27    1
     9     4     5    1
    10     4    22    1
    11     4     6    1
    12     6     7    1
    13     6    28    1
    14     6    29    1
    15     7     8   am
    16     7    18    1
    17     8     9    2
    18     8    10    2
    19     8    11    1
    20    11    17   ar
    21    11    12   ar
    22    12    13   ar
    23    12    30    1
    24    13    14   ar
    25    13    31    1
    26    14    15    1
    27    14    16   ar
    28    16    17   ar
    29    16    32    1
    30    17    33    1
    31    18    19    1
    32    18    34    1
    33    18    35    1
    34    19    20    1
    35    19    21    1
    36    19    22    1
    37    20    36    1
    38    20    37    1
    39    20    38    1
    40    21    39    1
    41    21    40    1
    42    21    41    1
@<TRIPOS>SUBSTRUCTURE
     1 ZINC000330515179        1 TEMP              0 ****  ****    0 ROOT


##########                                Name:    ZINC000279974681
##########                DOCK_Rotatable_Bonds:                   4
##########                         Heavy_Atoms:                  23
##########                    Molecular_Weight:              338.79
##########                DOCK_Rotatable_Bonds:                   4
##########                       Formal_Charge:           0.0100008
##########                     HBond_Acceptors:                   7
##########                        HBond_Donors:                   1
##########                         Heavy_Atoms:                  23
##########                          Grid_Score:          -29.897722
##########                     Grid_vdw_energy:          -29.311470
##########                      Grid_es_energy:           -0.586253
##########           Internal_energy_repulsive:           15.475359

@<TRIPOS>MOLECULE
ZINC000279974681
 42 45 1 0 0
SMALL
USER_CHARGES


@<TRIPOS>ATOM
      1 C1         -7.6565    4.0793   54.7569 C.3     1  ZINC000279974681   -0.1400
      2 C2         -8.3018    2.9767   53.9149 C.3     1  ZINC000279974681    0.0700
      3 H3         -9.2520    3.3321   53.5162 H       1  ZINC000279974681    0.0600
      4 C4         -8.5432    1.7404   54.7885 C.3     1  ZINC000279974681    0.1000
      5 N5         -8.9868    0.6382   53.9203 N.am    1  ZINC000279974681   -0.6300
      6 C6        -10.0931   -0.0737   54.2134 C.2     1  ZINC000279974681    0.7100
      7 O7        -10.7408    0.1913   55.2078 O.2     1  ZINC000279974681   -0.5600
      8 N8        -10.4814   -1.0792   53.4043 N.am    1  ZINC000279974681   -0.6700
      9 C9        -11.6322   -1.8197   53.7094 C.ar    1  ZINC000279974681    0.2000
     10 C10       -11.6026   -2.7594   54.7300 C.ar    1  ZINC000279974681   -0.1200
     11 C11       -12.7399   -3.4903   55.0313 C.ar    1  ZINC000279974681    0.0700
     12 C12       -13.9118   -3.2808   54.3090 C.ar    1  ZINC000279974681    0.0200
     13 C13       -13.9378   -2.3421   53.2901 C.ar    1  ZINC000279974681   -0.0700
     14 C14       -12.8040   -1.6086   52.9936 C.ar    1  ZINC000279974681   -0.0700
     15 Cl15      -12.8405   -0.4336   51.7163 Cl      1  ZINC000279974681   -0.0500
     16 O16       -14.8782   -4.1156   54.7941 O.3     1  ZINC000279974681   -0.3000
     17 C17       -14.1745   -5.1233   55.5441 C.3     1  ZINC000279974681    0.2100
     18 O18       -12.9715   -4.4557   55.9687 O.3     1  ZINC000279974681   -0.3000
     19 C19        -8.1873    0.3365   52.7224 C.3     1  ZINC000279974681    0.0800
     20 C20        -7.9632    1.6413   51.9495 C.3     1  ZINC000279974681    0.1100
     21 H21        -8.9121    1.9912   51.5429 H       1  ZINC000279974681    0.0700
     22 C22        -6.9771    1.3949   50.8059 C.3     1  ZINC000279974681   -0.1600
     23 C23        -5.5501    0.9879   51.1789 C.3     1  ZINC000279974681   -0.1700
     24 C24        -6.5068   -0.0428   50.5761 C.3     1  ZINC000279974681   -0.1600
     25 O25        -7.4312    2.6290   52.8355 O.3     1  ZINC000279974681   -0.3600
     26 H26        -7.4835    4.9574   54.1347 H       1  ZINC000279974681    0.0700
     27 H27        -8.3200    4.3427   55.5807 H       1  ZINC000279974681    0.0800
     28 H28        -6.7064    3.7233   55.1552 H       1  ZINC000279974681    0.0700
     29 H29        -7.6182    1.4609   55.2927 H       1  ZINC000279974681    0.0800
     30 H30        -9.3138    1.9582   55.5279 H       1  ZINC000279974681    0.1100
     31 H31        -9.9647   -1.2905   52.6111 H       1  ZINC000279974681    0.4100
     32 H32       -10.6927   -2.9209   55.2890 H       1  ZINC000279974681    0.1800
     33 H33       -14.8467   -2.1799   52.7296 H       1  ZINC000279974681    0.1500
     34 H34       -14.7620   -5.4392   56.4060 H       1  ZINC000279974681    0.1400
     35 H35       -13.9353   -5.9762   54.9088 H       1  ZINC000279974681    0.0900
     36 H36        -7.2265   -0.0843   53.0186 H       1  ZINC000279974681    0.0900
     37 H37        -8.7222   -0.3753   52.0937 H       1  ZINC000279974681    0.0900
     38 H38        -7.1071    2.0282   49.9284 H       1  ZINC000279974681    0.1100
     39 H39        -4.7410    1.3536   50.5467 H       1  ZINC000279974681    0.1000
     40 H40        -5.3138    0.8957   52.2389 H       1  ZINC000279974681    0.1000
     41 H41        -6.8999   -0.8131   51.2397 H       1  ZINC000279974681    0.1000
     42 H42        -6.3271   -0.3552   49.5474 H       1  ZINC000279974681    0.1000
@<TRIPOS>BOND
     1     1     2    1
     2     1    26    1
     3     1    27    1
     4     1    28    1
     5     2     3    1
     6     2    25    1
     7     2     4    1
     8     4     5    1
     9     4    29    1
    10     4    30    1
    11     5     6   am
    12     5    19    1
    13     6     7    2
    14     6     8   am
    15     8     9    1
    16     8    31    1
    17     9    14   ar
    18     9    10   ar
    19    10    11   ar
    20    10    32    1
    21    11    18    1
    22    11    12   ar
    23    12    13   ar
    24    12    16    1
    25    13    14   ar
    26    13    33    1
    27    14    15    1
    28    16    17    1
    29    17    18    1
    30    17    34    1
    31    17    35    1
    32    19    20    1
    33    19    36    1
    34    19    37    1
    35    20    21    1
    36    20    22    1
    37    20    25    1
    38    22    24    1
    39    22    23    1
    40    22    38    1
    41    23    24    1
    42    23    39    1
    43    23    40    1
    44    24    41    1
    45    24    42    1
@<TRIPOS>SUBSTRUCTURE
     1 ZINC000279974681        1 TEMP              0 ****  ****    0 ROOT


##########                                Name:    ZINC000928803822
##########                DOCK_Rotatable_Bonds:                   7
##########                         Heavy_Atoms:                  21
##########                    Molecular_Weight:             364.165
##########                DOCK_Rotatable_Bonds:                   7
##########                       Formal_Charge:         -0.00999978
##########                     HBond_Acceptors:                   7
##########                        HBond_Donors:                   1
##########                         Heavy_Atoms:                  21
##########                          Grid_Score:          -29.862652
##########                     Grid_vdw_energy:          -28.571781
##########                      Grid_es_energy:           -1.290871
##########           Internal_energy_repulsive:            6.053420

@<TRIPOS>MOLECULE
ZINC000928803822
 34 34 1 0 0
SMALL
USER_CHARGES


@<TRIPOS>ATOM
      1 C1         -6.9648    0.2478   51.1584 C.3     1  ZINC000928803822    0.0900
      2 N2         -6.5272    1.6453   51.1140 N.pl3   1  ZINC000928803822   -0.6300
      3 C3         -7.4805    2.7005   50.7621 C.3     1  ZINC000928803822    0.0900
      4 C4         -5.2008    1.9715   51.4073 C.ar    1  ZINC000928803822    0.2200
      5 C5         -4.2044    1.7414   50.4664 C.ar    1  ZINC000928803822   -0.1500
      6 C6         -2.8895    2.0627   50.7521 C.ar    1  ZINC000928803822   -0.0500
      7 Br7        -1.5408    1.7463   49.4650 Br      1  ZINC000928803822   -0.0400
      8 C8         -2.5590    2.6140   51.9741 C.ar    1  ZINC000928803822   -0.1200
      9 C9         -3.5531    2.8489   52.9257 C.ar    1  ZINC000928803822   -0.0800
     10 C10        -3.2018    3.4393   54.2350 C.2     1  ZINC000928803822    0.5700
     11 O11        -3.6215    4.5391   54.5381 O.2     1  ZINC000928803822   -0.5100
     12 N12        -2.4164    2.7579   55.0926 N.am    1  ZINC000928803822   -0.7200
     13 C13        -2.0669    3.3435   56.3891 C.3     1  ZINC000928803822    0.1100
     14 H14        -1.9056    4.4152   56.2721 H       1  ZINC000928803822    0.1400
     15 C15        -0.7879    2.6898   56.9158 C.3     1  ZINC000928803822   -0.0300
     16 C16         0.2797    2.8202   55.9109 C.1     1  ZINC000928803822    0.2000
     17 N17         1.1036    2.9209   55.1352 N.1     1  ZINC000928803822   -0.4000
     18 C18        -3.2074    3.1048   57.3806 C.3     1  ZINC000928803822    0.4400
     19 F19        -2.6964    3.0835   58.6827 F       1  ZINC000928803822   -0.1800
     20 F20        -4.1484    4.1337   57.2657 F       1  ZINC000928803822   -0.1700
     21 F21        -3.8202    1.8789   57.1001 F       1  ZINC000928803822   -0.1600
     22 C22        -4.8794    2.5302   52.6352 C.ar    1  ZINC000928803822   -0.1200
     23 H23        -6.8272   -0.2073   50.1775 H       1  ZINC000928803822    0.0600
     24 H24        -6.3741   -0.2946   51.8966 H       1  ZINC000928803822    0.0700
     25 H25        -8.0185    0.2056   51.4340 H       1  ZINC000928803822    0.0700
     26 H26        -7.9629    3.0707   51.6666 H       1  ZINC000928803822    0.0500
     27 H27        -6.9526    3.5181   50.2711 H       1  ZINC000928803822    0.0700
     28 H28        -8.2352    2.2979   50.0866 H       1  ZINC000928803822    0.0700
     29 H29        -4.4572    1.3099   49.5091 H       1  ZINC000928803822    0.1400
     30 H30        -1.5314    2.8633   52.1938 H       1  ZINC000928803822    0.1300
     31 H31        -2.0825    1.8798   54.8511 H       1  ZINC000928803822    0.4100
     32 H32        -0.4809    3.1831   57.8382 H       1  ZINC000928803822    0.1400
     33 H33        -0.9741    1.6340   57.1132 H       1  ZINC000928803822    0.1300
     34 H34        -5.6524    2.7097   53.3676 H       1  ZINC000928803822    0.1500
@<TRIPOS>BOND
     1     1     2    1
     2     1    23    1
     3     1    24    1
     4     1    25    1
     5     2     3    1
     6     2     4    1
     7     3    26    1
     8     3    27    1
     9     3    28    1
    10     4    22   ar
    11     4     5   ar
    12     5     6   ar
    13     5    29    1
    14     6     7    1
    15     6     8   ar
    16     8     9   ar
    17     8    30    1
    18     9    10    1
    19     9    22   ar
    20    10    11    2
    21    10    12   am
    22    12    13    1
    23    12    31    1
    24    13    14    1
    25    13    15    1
    26    13    18    1
    27    15    16    1
    28    15    32    1
    29    15    33    1
    30    16    17    3
    31    18    19    1
    32    18    20    1
    33    18    21    1
    34    22    34    1
@<TRIPOS>SUBSTRUCTURE
     1 ZINC000928803822        1 TEMP              0 ****  ****    0 ROOT


##########                                Name:    ZINC001173835973
##########                DOCK_Rotatable_Bonds:                   4
##########                         Heavy_Atoms:                  26
##########                    Molecular_Weight:             343.388
##########                DOCK_Rotatable_Bonds:                   4
##########                       Formal_Charge:           -0.010001
##########                     HBond_Acceptors:                   6
##########                        HBond_Donors:                   4
##########                         Heavy_Atoms:                  26
##########                          Grid_Score:          -29.846533
##########                     Grid_vdw_energy:          -26.968666
##########                      Grid_es_energy:           -2.877867
##########           Internal_energy_repulsive:            6.204810

@<TRIPOS>MOLECULE
ZINC001173835973
 43 46 1 0 0
SMALL
USER_CHARGES


@<TRIPOS>ATOM
      1 C1         -2.6675    2.3656   49.3653 C.3     1  ZINC001173835973   -0.1700
      2 C2         -3.7249    1.8061   50.2818 C.2     1  ZINC001173835973    0.5100
      3 O3         -3.4899    1.6633   51.4631 O.2     1  ZINC001173835973   -0.5200
      4 N4         -4.9318    1.4644   49.7888 N.am    1  ZINC001173835973   -0.6800
      5 C5         -5.9137    0.9449   50.6396 C.ar    1  ZINC001173835973    0.1800
      6 C6         -6.1944   -0.4155   50.6283 C.ar    1  ZINC001173835973   -0.1900
      7 C7         -7.1640   -0.9298   51.4683 C.ar    1  ZINC001173835973   -0.0600
      8 C8         -7.8566   -0.0938   52.3221 C.ar    1  ZINC001173835973   -0.1900
      9 C9         -7.5805    1.2687   52.3384 C.ar    1  ZINC001173835973    0.2200
     10 N10        -8.2810    2.1135   53.2016 N.pl3   1  ZINC001173835973   -0.6900
     11 C11        -9.4596    1.6690   53.8122 C.ar    1  ZINC001173835973    0.0400
     12 C12        -9.4405    1.2841   55.1204 C.ar    1  ZINC001173835973    0.2400
     13 N13        -8.2426    1.3364   55.8421 N.pl3   1  ZINC001173835973   -0.8600
     14 C14       -10.6592    0.8186   55.7733 C.ar    1  ZINC001173835973   -0.1100
     15 C15       -10.6458    0.4214   57.1203 C.ar    1  ZINC001173835973   -0.0600
     16 C16       -11.8185   -0.0061   57.6815 C.ar    1  ZINC001173835973   -0.1700
     17 C17       -12.9791   -0.0375   56.9176 C.ar    1  ZINC001173835973    0.1200
     18 N18       -12.9833    0.3358   55.6582 N.ar    1  ZINC001173835973   -0.4400
     19 C19       -11.8748    0.7612   55.0565 C.ar    1  ZINC001173835973    0.1900
     20 C20       -11.8954    1.1754   53.6487 C.ar    1  ZINC001173835973    0.1300
     21 N21       -13.0232    1.1345   52.9427 N.ar    1  ZINC001173835973   -0.4400
     22 C22       -13.0560    1.5023   51.6820 C.ar    1  ZINC001173835973    0.1000
     23 C23       -11.9165    1.9512   51.0256 C.ar    1  ZINC001173835973   -0.1500
     24 C24       -10.7254    2.0165   51.6971 C.ar    1  ZINC001173835973   -0.0700
     25 C25       -10.7005    1.6267   53.0459 C.ar    1  ZINC001173835973   -0.0400
     26 C26        -6.6037    1.7873   51.4996 C.ar    1  ZINC001173835973   -0.1900
     27 H27        -1.7663    2.5810   49.9394 H       1  ZINC001173835973    0.1000
     28 H28        -2.4377    1.6369   48.5881 H       1  ZINC001173835973    0.0900
     29 H29        -3.0337    3.2837   48.9059 H       1  ZINC001173835973    0.0900
     30 H30        -5.1199    1.5787   48.8441 H       1  ZINC001173835973    0.4100
     31 H31        -5.6547   -1.0720   49.9620 H       1  ZINC001173835973    0.1200
     32 H32        -7.3807   -1.9878   51.4569 H       1  ZINC001173835973    0.1200
     33 H33        -8.6136   -0.4988   52.9772 H       1  ZINC001173835973    0.1200
     34 H34        -7.9511    3.0083   53.3783 H       1  ZINC001173835973    0.4000
     35 H35        -7.4491    1.7208   55.4377 H       1  ZINC001173835973    0.4100
     36 H36        -8.2059    0.9885   56.7468 H       1  ZINC001173835973    0.4000
     37 H37        -9.7338    0.4524   57.6981 H       1  ZINC001173835973    0.1400
     38 H38       -11.8419   -0.3188   58.7151 H       1  ZINC001173835973    0.1400
     39 H39       -13.8992   -0.3769   57.3700 H       1  ZINC001173835973    0.1700
     40 H40       -13.9907    1.4543   51.1429 H       1  ZINC001173835973    0.1600
     41 H41       -11.9702    2.2474   49.9884 H       1  ZINC001173835973    0.1400
     42 H42        -9.8293    2.3623   51.2035 H       1  ZINC001173835973    0.1400
     43 H43        -6.3869    2.8452   51.5105 H       1  ZINC001173835973    0.1400
@<TRIPOS>BOND
     1     1     2    1
     2     1    27    1
     3     1    28    1
     4     1    29    1
     5     2     3    2
     6     2     4   am
     7     4     5    1
     8     4    30    1
     9     5    26   ar
    10     5     6   ar
    11     6     7   ar
    12     6    31    1
    13     7     8   ar
    14     7    32    1
    15     8     9   ar
    16     8    33    1
    17     9    10    1
    18     9    26   ar
    19    10    11    1
    20    10    34    1
    21    11    25   ar
    22    11    12   ar
    23    12    13    1
    24    12    14   ar
    25    13    35    1
    26    13    36    1
    27    14    19   ar
    28    14    15   ar
    29    15    16   ar
    30    15    37    1
    31    16    17   ar
    32    16    38    1
    33    17    18   ar
    34    17    39    1
    35    18    19   ar
    36    19    20   ar
    37    20    25   ar
    38    20    21   ar
    39    21    22   ar
    40    22    23   ar
    41    22    40    1
    42    23    24   ar
    43    23    41    1
    44    24    25   ar
    45    24    42    1
    46    26    43    1
@<TRIPOS>SUBSTRUCTURE
     1 ZINC001173835973        1 TEMP              0 ****  ****    0 ROOT


##########                                Name:    ZINC000826324849
##########                DOCK_Rotatable_Bonds:                   4
##########                         Heavy_Atoms:                  27
##########                    Molecular_Weight:             395.374
##########                DOCK_Rotatable_Bonds:                   4
##########                       Formal_Charge:           0.0400001
##########                     HBond_Acceptors:                  13
##########                        HBond_Donors:                   1
##########                         Heavy_Atoms:                  27
##########                          Grid_Score:          -29.843843
##########                     Grid_vdw_energy:          -28.719864
##########                      Grid_es_energy:           -1.123980
##########           Internal_energy_repulsive:          132.386047

@<TRIPOS>MOLECULE
ZINC000826324849
 41 44 1 0 0
SMALL
USER_CHARGES


@<TRIPOS>ATOM
      1 C1          0.0392    2.6483   48.9679 C.3     1  ZINC000826324849   -0.0600
      2 C2         -1.2770    2.3879   49.6542 C.2     1  ZINC000826324849    0.2000
      3 N3         -2.4021    3.0315   49.4557 N.2     1  ZINC000826324849   -0.4600
      4 C4         -3.2970    2.4592   50.2805 C.2     1  ZINC000826324849    0.1600
      5 C5         -4.7468    2.8429   50.4280 C.3     1  ZINC000826324849    0.2200
      6 H6         -5.0828    3.3605   49.5295 H       1  ZINC000826324849    0.1300
      7 C7         -5.5944    1.5844   50.6462 C.3     1  ZINC000826324849    0.0600
      8 O8         -6.9330    1.9685   50.9693 O.3     1  ZINC000826324849   -0.3600
      9 C9         -7.0511    2.7145   52.1830 C.3     1  ZINC000826324849    0.0400
     10 C10        -6.2782    4.0310   52.0434 C.3     1  ZINC000826324849    0.0800
     11 N11        -4.9104    3.7219   51.5967 N.am    1  ZINC000826324849   -1.0100
     12 S12        -3.5945    4.3437   52.3869 S.o2    1  ZINC000826324849    2.7100
     13 O13        -2.4512    3.7347   51.8029 O.2     1  ZINC000826324849   -0.9300
     14 O14        -3.7850    5.7509   52.4376 O.2     1  ZINC000826324849   -0.9300
     15 C15        -3.6674    3.7713   54.0517 C.ar    1  ZINC000826324849   -0.5800
     16 C16        -4.8515    3.2790   54.5619 C.ar    1  ZINC000826324849   -0.0400
     17 C17        -4.9116    2.8290   55.8688 C.ar    1  ZINC000826324849   -0.0800
     18 C18        -3.7872    2.8697   56.6722 C.ar    1  ZINC000826324849   -0.1100
     19 C19        -2.5952    3.3609   56.1721 C.ar    1  ZINC000826324849    0.1300
     20 F20        -1.4964    3.4003   56.9571 F       1  ZINC000826324849   -0.1100
     21 C21        -2.5287    3.8100   54.8530 C.ar    1  ZINC000826324849    0.0500
     22 C22        -1.2525    4.3381   54.3092 C.2     1  ZINC000826324849    0.1800
     23 N23        -0.2135    3.6309   53.9117 N.2     1  ZINC000826324849   -0.2600
     24 N24         0.6921    4.4538   53.5072 N.pl3   1  ZINC000826324849   -0.2200
     25 N25         0.2599    5.6595   53.6356 N.2     1  ZINC000826324849   -0.0200
     26 N26        -0.9346    5.6268   54.1212 N.2     1  ZINC000826324849   -0.2600
     27 N27        -2.6820    1.5142   50.9266 N.2     1  ZINC000826324849   -0.3800
     28 O28        -1.5220    1.4529   50.5772 O.3     1  ZINC000826324849    0.0900
     29 H29         0.7875    1.9482   49.3394 H       1  ZINC000826324849    0.1000
     30 H30        -0.0795    2.5166   47.8925 H       1  ZINC000826324849    0.1100
     31 H31         0.3616    3.6686   49.1756 H       1  ZINC000826324849    0.1100
     32 H32        -5.5972    0.9850   49.7359 H       1  ZINC000826324849    0.1200
     33 H33        -5.1753    1.0007   51.4659 H       1  ZINC000826324849    0.0600
     34 H34        -8.1020    2.9283   52.3782 H       1  ZINC000826324849    0.1200
     35 H35        -6.6372    2.1351   53.0083 H       1  ZINC000826324849    0.0600
     36 H36        -6.7687    4.6686   51.3080 H       1  ZINC000826324849    0.0900
     37 H37        -6.2435    4.5402   53.0066 H       1  ZINC000826324849    0.1100
     38 H38        -5.7334    3.2452   53.9395 H       1  ZINC000826324849    0.1400
     39 H39        -5.8406    2.4445   56.2631 H       1  ZINC000826324849    0.1500
     40 H40        -3.8400    2.5177   57.6919 H       1  ZINC000826324849    0.1500
     41 H41         1.5630    4.2038   53.1607 H       1  ZINC000826324849    0.4800
@<TRIPOS>BOND
     1     1     2    1
     2     1    29    1
     3     1    30    1
     4     1    31    1
     5     2    28    1
     6     2     3    2
     7     3     4    1
     8     4     5    1
     9     4    27    2
    10     5     6    1
    11     5    11    1
    12     5     7    1
    13     7     8    1
    14     7    32    1
    15     7    33    1
    16     8     9    1
    17     9    10    1
    18     9    34    1
    19     9    35    1
    20    10    11    1
    21    10    36    1
    22    10    37    1
    23    11    12   am
    24    12    13    2
    25    12    14    2
    26    12    15    1
    27    15    21   ar
    28    15    16   ar
    29    16    17   ar
    30    16    38    1
    31    17    18   ar
    32    17    39    1
    33    18    19   ar
    34    18    40    1
    35    19    20    1
    36    19    21   ar
    37    21    22    1
    38    22    26    1
    39    22    23    2
    40    23    24    1
    41    24    25    1
    42    24    41    1
    43    25    26    2
    44    27    28    1
@<TRIPOS>SUBSTRUCTURE
     1 ZINC000826324849        1 TEMP              0 ****  ****    0 ROOT


##########                                Name:    ZINC001039666729
##########                DOCK_Rotatable_Bonds:                   3
##########                         Heavy_Atoms:                  25
##########                    Molecular_Weight:             344.376
##########                DOCK_Rotatable_Bonds:                   3
##########                       Formal_Charge:          -0.0199998
##########                     HBond_Acceptors:                  10
##########                        HBond_Donors:                   2
##########                         Heavy_Atoms:                  25
##########                          Grid_Score:          -29.784903
##########                     Grid_vdw_energy:          -29.489538
##########                      Grid_es_energy:           -0.295365
##########           Internal_energy_repulsive:           20.042210

@<TRIPOS>MOLECULE
ZINC001039666729
 45 47 1 0 0
SMALL
USER_CHARGES


@<TRIPOS>ATOM
      1 C1        -10.3378   -0.7953   61.0498 C.3     1  ZINC001039666729   -0.1100
      2 C2        -10.4094   -1.9660   60.1034 C.ar    1  ZINC001039666729    0.2200
      3 C3         -9.3752   -2.8867   60.0473 C.ar    1  ZINC001039666729   -0.3000
      4 C4         -9.4808   -3.9489   59.1629 C.ar    1  ZINC001039666729    0.1900
      5 N5        -10.5589   -4.0514   58.4035 N.ar    1  ZINC001039666729   -0.5800
      6 C6        -11.5303   -3.1535   58.4817 C.ar    1  ZINC001039666729    0.6000
      7 N7        -12.6447   -3.2916   57.6725 N.pl3   1  ZINC001039666729   -0.5900
      8 C8        -14.0362   -2.9692   58.1135 C.3     1  ZINC001039666729    0.1200
      9 C9        -14.2222   -1.4539   58.0080 C.3     1  ZINC001039666729    0.0900
     10 N10       -14.0760   -1.0622   56.5839 N.am    1  ZINC001039666729   -0.7400
     11 C11       -12.8351   -0.5862   56.2513 C.2     1  ZINC001039666729    0.5200
     12 O12       -11.9568   -0.5088   57.0841 O.2     1  ZINC001039666729   -0.5200
     13 C13       -12.5860   -0.1613   54.8270 C.3     1  ZINC001039666729   -0.1500
     14 C14       -11.4692   -1.0179   54.2270 C.3     1  ZINC001039666729    0.1100
     15 N15       -11.8607   -2.4465   54.3438 N.am    1  ZINC001039666729   -0.6100
     16 C16       -12.5860   -3.0816   53.4020 C.2     1  ZINC001039666729    0.6100
     17 O17       -12.8804   -4.2519   53.5481 O.2     1  ZINC001039666729   -0.5200
     18 C18       -13.0235   -2.3550   52.1915 C.2     1  ZINC001039666729   -0.0400
     19 N19       -12.2550   -1.8499   51.2385 N.2     1  ZINC001039666729   -0.2500
     20 N20       -13.0090   -1.2948   50.3571 N.pl3   1  ZINC001039666729   -0.2300
     21 N21       -14.2495   -1.4037   50.6743 N.2     1  ZINC001039666729   -0.2800
     22 C22       -14.3463   -2.0595   51.8057 C.2     1  ZINC001039666729    0.0400
     23 C23       -11.3881   -3.1192   55.5817 C.3     1  ZINC001039666729    0.1100
     24 C24       -12.5895   -3.7738   56.2586 C.3     1  ZINC001039666729    0.1300
     25 N25       -11.4628   -2.1300   59.3200 N.ar    1  ZINC001039666729   -0.5700
     26 H26       -10.7758   -1.0753   62.0079 H       1  ZINC001039666729    0.0800
     27 H27        -9.2961   -0.5096   61.1962 H       1  ZINC001039666729    0.0800
     28 H28       -10.8896    0.0457   60.6299 H       1  ZINC001039666729    0.0800
     29 H29        -8.5056   -2.7788   60.6787 H       1  ZINC001039666729    0.1400
     30 H30        -8.6923   -4.6836   59.0944 H       1  ZINC001039666729    0.1600
     31 H31       -14.7544   -3.4749   57.4681 H       1  ZINC001039666729    0.0800
     32 H32       -14.1791   -3.2874   59.1463 H       1  ZINC001039666729    0.0900
     33 H33       -15.2154   -1.1804   58.3639 H       1  ZINC001039666729    0.0800
     34 H34       -13.4649   -0.9485   58.6073 H       1  ZINC001039666729    0.1000
     35 H35       -14.7993   -1.1368   55.9418 H       1  ZINC001039666729    0.4100
     36 H36       -13.4976   -0.2926   54.2440 H       1  ZINC001039666729    0.0800
     37 H37       -12.2900    0.8876   54.8072 H       1  ZINC001039666729    0.1100
     38 H38       -11.3319   -0.7594   53.1771 H       1  ZINC001039666729    0.1100
     39 H39       -10.5412   -0.8457   54.7723 H       1  ZINC001039666729    0.0900
     40 H40       -12.6839   -0.8515   49.5578 H       1  ZINC001039666729    0.4700
     41 H41       -15.2520   -2.3142   52.3361 H       1  ZINC001039666729    0.2100
     42 H42       -10.6477   -3.8778   55.3275 H       1  ZINC001039666729    0.0800
     43 H43       -10.9452   -2.3836   56.2531 H       1  ZINC001039666729    0.1200
     44 H44       -12.4740   -4.8575   56.2473 H       1  ZINC001039666729    0.0700
     45 H45       -13.5046   -3.4941   55.7366 H       1  ZINC001039666729    0.0900
@<TRIPOS>BOND
     1     1     2    1
     2     1    26    1
     3     1    27    1
     4     1    28    1
     5     2    25   ar
     6     2     3   ar
     7     3     4   ar
     8     3    29    1
     9     4     5   ar
    10     4    30    1
    11     5     6   ar
    12     6     7    1
    13     6    25   ar
    14     7    24    1
    15     7     8    1
    16     8     9    1
    17     8    31    1
    18     8    32    1
    19     9    10    1
    20     9    33    1
    21     9    34    1
    22    10    11   am
    23    10    35    1
    24    11    12    2
    25    11    13    1
    26    13    14    1
    27    13    36    1
    28    13    37    1
    29    14    15    1
    30    14    38    1
    31    14    39    1
    32    15    16   am
    33    15    23    1
    34    16    17    2
    35    16    18    1
    36    18    22    1
    37    18    19    2
    38    19    20    1
    39    20    21    1
    40    20    40    1
    41    21    22    2
    42    22    41    1
    43    23    24    1
    44    23    42    1
    45    23    43    1
    46    24    44    1
    47    24    45    1
@<TRIPOS>SUBSTRUCTURE
     1 ZINC001039666729        1 TEMP              0 ****  ****    0 ROOT


##########                                Name:    ZINC000225856071
##########                DOCK_Rotatable_Bonds:                   6
##########                         Heavy_Atoms:                  29
##########                    Molecular_Weight:             409.549
##########                DOCK_Rotatable_Bonds:                   6
##########                       Formal_Charge:         -0.00999989
##########                     HBond_Acceptors:                   5
##########                        HBond_Donors:                   1
##########                         Heavy_Atoms:                  29
##########                          Grid_Score:          -29.745790
##########                     Grid_vdw_energy:          -29.888493
##########                      Grid_es_energy:            0.142703
##########           Internal_energy_repulsive:           33.862114

@<TRIPOS>MOLECULE
ZINC000225856071
 56 58 1 0 0
SMALL
USER_CHARGES


@<TRIPOS>ATOM
      1 C1         -1.9412    5.1922   53.4615 C.3     1  ZINC000225856071    0.0200
      2 O2         -2.5553    3.9853   53.9176 O.3     1  ZINC000225856071   -0.3100
      3 C3         -3.5469    3.4677   53.1458 C.ar    1  ZINC000225856071    0.1900
      4 C4         -3.2409    2.5806   52.1244 C.ar    1  ZINC000225856071   -0.2300
      5 C5         -4.2509    2.0553   51.3413 C.ar    1  ZINC000225856071    0.0700
      6 C6         -3.9190    1.0915   50.2314 C.3     1  ZINC000225856071   -0.1800
      7 C7         -5.5656    2.4128   51.5755 C.ar    1  ZINC000225856071   -0.7100
      8 S8         -6.8513    1.7408   50.5756 S.o2    1  ZINC000225856071    2.7000
      9 O9         -6.7838    2.4167   49.3275 O.2     1  ZINC000225856071   -0.9600
     10 O10        -6.7600    0.3283   50.7005 O.2     1  ZINC000225856071   -0.9500
     11 N11        -8.2905    2.1794   51.2677 N.am    1  ZINC000225856071   -1.1100
     12 C12        -8.6027    1.7605   52.6365 C.3     1  ZINC000225856071    0.2400
     13 H13        -7.6942    1.4077   53.1246 H       1  ZINC000225856071    0.1100
     14 C14        -9.6188    0.6483   52.6020 C.ar    1  ZINC000225856071   -0.1000
     15 C15       -10.9678    0.9421   52.6728 C.ar    1  ZINC000225856071   -0.1000
     16 C16       -11.9000   -0.0782   52.6412 C.ar    1  ZINC000225856071   -0.1200
     17 C17       -11.4832   -1.3923   52.5383 C.ar    1  ZINC000225856071   -0.1100
     18 C18       -10.1343   -1.6860   52.4666 C.ar    1  ZINC000225856071   -0.1100
     19 C19        -9.2023   -0.6654   52.4938 C.ar    1  ZINC000225856071   -0.1000
     20 C20        -9.1636    2.9299   53.4040 C.ar    1  ZINC000225856071   -0.0900
     21 C21        -9.3798    4.1362   52.7649 C.ar    1  ZINC000225856071   -0.1000
     22 C22        -9.8945    5.2090   53.4691 C.ar    1  ZINC000225856071   -0.1200
     23 C23       -10.1931    5.0749   54.8119 C.ar    1  ZINC000225856071   -0.0800
     24 C24       -10.7536    6.2444   55.5795 C.3     1  ZINC000225856071   -0.1200
     25 C25        -9.9781    3.8678   55.4508 C.ar    1  ZINC000225856071   -0.1200
     26 C26        -9.4672    2.7943   54.7460 C.ar    1  ZINC000225856071   -0.0600
     27 C27        -9.2329    1.4785   55.4423 C.3     1  ZINC000225856071   -0.1300
     28 C28        -5.8734    3.2967   52.5935 C.ar    1  ZINC000225856071    0.0200
     29 C29        -4.8677    3.8213   53.3819 C.ar    1  ZINC000225856071   -0.1400
     30 C30        -5.2039    4.7841   54.4914 C.3     1  ZINC000225856071   -0.1100
     31 H31        -2.6939    5.9771   53.3864 H       1  ZINC000225856071    0.0600
     32 H32        -1.1685    5.4962   54.1678 H       1  ZINC000225856071    0.1000
     33 H33        -1.4926    5.0241   52.4823 H       1  ZINC000225856071    0.0600
     34 H34        -2.2139    2.3009   51.9410 H       1  ZINC000225856071    0.1400
     35 H35        -3.9455    0.0718   50.6157 H       1  ZINC000225856071    0.0900
     36 H36        -4.6490    1.1963   49.4289 H       1  ZINC000225856071    0.1000
     37 H37        -2.9226    1.3091   49.8469 H       1  ZINC000225856071    0.0800
     38 H38        -8.9266    2.7135   50.7670 H       1  ZINC000225856071    0.4200
     39 H39       -11.2933    1.9687   52.7532 H       1  ZINC000225856071    0.1200
     40 H40       -12.9538    0.1513   52.6973 H       1  ZINC000225856071    0.1200
     41 H41       -12.2114   -2.1894   52.5143 H       1  ZINC000225856071    0.1200
     42 H42        -9.8088   -2.7126   52.3866 H       1  ZINC000225856071    0.1200
     43 H43        -8.1485   -0.8949   52.4378 H       1  ZINC000225856071    0.1200
     44 H44        -9.1464    4.2409   51.7156 H       1  ZINC000225856071    0.1200
     45 H45       -10.0627    6.1518   52.9699 H       1  ZINC000225856071    0.1200
     46 H46       -11.8420    6.2282   55.5228 H       1  ZINC000225856071    0.0700
     47 H47       -10.4431    6.1770   56.6222 H       1  ZINC000225856071    0.0700
     48 H48       -10.3811    7.1738   55.1487 H       1  ZINC000225856071    0.0700
     49 H49       -10.2119    3.7631   56.5000 H       1  ZINC000225856071    0.1200
     50 H50       -10.1306    0.8645   55.3706 H       1  ZINC000225856071    0.0800
     51 H51        -8.3993    0.9601   54.9686 H       1  ZINC000225856071    0.0700
     52 H52        -8.9992    1.6593   56.4915 H       1  ZINC000225856071    0.0700
     53 H53        -6.9013    3.5743   52.7748 H       1  ZINC000225856071    0.1500
     54 H54        -5.3859    4.2287   55.4116 H       1  ZINC000225856071    0.0700
     55 H55        -4.3713    5.4715   54.6406 H       1  ZINC000225856071    0.0700
     56 H56        -6.0976    5.3482   54.2247 H       1  ZINC000225856071    0.0700
@<TRIPOS>BOND
     1     1     2    1
     2     1    31    1
     3     1    32    1
     4     1    33    1
     5     2     3    1
     6     3    29   ar
     7     3     4   ar
     8     4     5   ar
     9     4    34    1
    10     5     6    1
    11     5     7   ar
    12     6    35    1
    13     6    36    1
    14     6    37    1
    15     7     8    1
    16     7    28   ar
    17     8     9    2
    18     8    10    2
    19     8    11   am
    20    11    12    1
    21    11    38    1
    22    12    13    1
    23    12    14    1
    24    12    20    1
    25    14    19   ar
    26    14    15   ar
    27    15    16   ar
    28    15    39    1
    29    16    17   ar
    30    16    40    1
    31    17    18   ar
    32    17    41    1
    33    18    19   ar
    34    18    42    1
    35    19    43    1
    36    20    26   ar
    37    20    21   ar
    38    21    22   ar
    39    21    44    1
    40    22    23   ar
    41    22    45    1
    42    23    24    1
    43    23    25   ar
    44    24    46    1
    45    24    47    1
    46    24    48    1
    47    25    26   ar
    48    25    49    1
    49    26    27    1
    50    27    50    1
    51    27    51    1
    52    27    52    1
    53    28    29   ar
    54    28    53    1
    55    29    30    1
    56    30    54    1
    57    30    55    1
    58    30    56    1
@<TRIPOS>SUBSTRUCTURE
     1 ZINC000225856071        1 TEMP              0 ****  ****    0 ROOT


##########                                Name:    ZINC001067316277
##########                DOCK_Rotatable_Bonds:                   5
##########                         Heavy_Atoms:                  24
##########                    Molecular_Weight:             345.469
##########                DOCK_Rotatable_Bonds:                   5
##########                       Formal_Charge:          -0.0200007
##########                     HBond_Acceptors:                   7
##########                        HBond_Donors:                   2
##########                         Heavy_Atoms:                  24
##########                          Grid_Score:          -29.733236
##########                     Grid_vdw_energy:          -29.523327
##########                      Grid_es_energy:           -0.209909
##########           Internal_energy_repulsive:            8.358802

@<TRIPOS>MOLECULE
ZINC001067316277
 47 49 1 0 0
SMALL
USER_CHARGES


@<TRIPOS>ATOM
      1 C1         -9.3212    3.3397   55.0986 C.3     1  ZINC001067316277   -0.1400
      2 S2        -10.6746    3.1833   53.9069 S.3     1  ZINC001067316277   -0.0400
      3 C3         -9.7561    3.1486   52.4037 C.ar    1  ZINC001067316277    0.1800
      4 C4        -10.3955    3.3482   51.1776 C.ar    1  ZINC001067316277   -0.2400
      5 C5         -9.6357    3.3124   50.0251 C.ar    1  ZINC001067316277    0.1900
      6 N6         -8.3321    3.0916   50.1143 N.ar    1  ZINC001067316277   -0.5600
      7 C7         -7.7515    2.9056   51.2908 C.ar    1  ZINC001067316277    0.5100
      8 N8         -6.3873    2.6779   51.3415 N.3     1  ZINC001067316277   -0.4600
      9 C9         -5.9233    1.9894   50.1302 C.3     1  ZINC001067316277    0.0700
     10 C10        -4.4448    1.6255   50.2834 C.3     1  ZINC001067316277   -0.1300
     11 C11        -3.6308    2.9022   50.5108 C.3     1  ZINC001067316277    0.1600
     12 H12        -3.7234    3.5529   49.6413 H       1  ZINC001067316277    0.0900
     13 N13        -2.2222    2.5550   50.7147 N.am    1  ZINC001067316277   -0.7200
     14 C14        -1.4459    2.2408   49.6587 C.2     1  ZINC001067316277    0.5900
     15 O15        -1.9154    2.2442   48.5360 O.2     1  ZINC001067316277   -0.5300
     16 C16        -0.0352    1.8949   49.8627 C.2     1  ZINC001067316277   -0.0600
     17 C17         0.8819    1.5984   48.8769 C.2     1  ZINC001067316277   -0.1000
     18 C18         2.0975    1.3304   49.5138 C.2     1  ZINC001067316277   -0.2100
     19 C19         1.9061    1.4648   50.8480 C.2     1  ZINC001067316277    0.0300
     20 N20         0.6157    1.8130   51.0728 N.pl3   1  ZINC001067316277   -0.5400
     21 C21        -4.1656    3.6251   51.7502 C.3     1  ZINC001067316277   -0.0700
     22 C22        -3.9854    2.7325   52.9797 C.3     1  ZINC001067316277   -0.1400
     23 C23        -3.3962    4.9323   51.9507 C.3     1  ZINC001067316277   -0.1400
     24 C24        -5.6522    3.9311   51.5544 C.3     1  ZINC001067316277    0.0800
     25 N25        -8.4430    2.9376   52.4197 N.ar    1  ZINC001067316277   -0.5400
     26 H26        -8.6549    2.4821   55.0062 H       1  ZINC001067316277    0.0900
     27 H27        -8.7647    4.2553   54.8983 H       1  ZINC001067316277    0.0900
     28 H28        -9.7289    3.3760   56.1089 H       1  ZINC001067316277    0.1000
     29 H29       -11.4598    3.5259   51.1322 H       1  ZINC001067316277    0.1500
     30 H30       -10.0990    3.4624   49.0611 H       1  ZINC001067316277    0.1700
     31 H31        -6.5075    1.0812   49.9824 H       1  ZINC001067316277    0.1000
     32 H32        -6.0485    2.6457   49.2690 H       1  ZINC001067316277    0.0500
     33 H33        -4.3209    0.9580   51.1362 H       1  ZINC001067316277    0.0800
     34 H34        -4.0968    1.1284   49.3779 H       1  ZINC001067316277    0.0800
     35 H35        -1.8483    2.5511   51.6098 H       1  ZINC001067316277    0.3900
     36 H36         0.6963    1.5768   47.8132 H       1  ZINC001067316277    0.1500
     37 H37         3.0245    1.0633   49.0283 H       1  ZINC001067316277    0.1500
     38 H38         2.6597    1.3216   51.6083 H       1  ZINC001067316277    0.1700
     39 H39         0.2159    1.9723   51.9421 H       1  ZINC001067316277    0.4100
     40 H40        -2.9267    2.5119   53.1166 H       1  ZINC001067316277    0.0500
     41 H41        -4.3662    3.2475   53.8615 H       1  ZINC001067316277    0.0600
     42 H42        -4.5347    1.8020   52.8368 H       1  ZINC001067316277    0.0700
     43 H43        -3.5261    5.5683   51.0752 H       1  ZINC001067316277    0.0600
     44 H44        -3.7773    5.4464   52.8331 H       1  ZINC001067316277    0.0600
     45 H45        -2.3371    4.7133   52.0869 H       1  ZINC001067316277    0.0600
     46 H46        -5.7786    4.5783   50.6866 H       1  ZINC001067316277    0.0600
     47 H47        -6.0394    4.4332   52.4411 H       1  ZINC001067316277    0.1000
@<TRIPOS>BOND
     1     1     2    1
     2     1    26    1
     3     1    27    1
     4     1    28    1
     5     2     3    1
     6     3    25   ar
     7     3     4   ar
     8     4     5   ar
     9     4    29    1
    10     5     6   ar
    11     5    30    1
    12     6     7   ar
    13     7     8    1
    14     7    25   ar
    15     8    24    1
    16     8     9    1
    17     9    10    1
    18     9    31    1
    19     9    32    1
    20    10    11    1
    21    10    33    1
    22    10    34    1
    23    11    12    1
    24    11    13    1
    25    11    21    1
    26    13    14   am
    27    13    35    1
    28    14    15    2
    29    14    16    1
    30    16    20    1
    31    16    17    2
    32    17    18    1
    33    17    36    1
    34    18    19    2
    35    18    37    1
    36    19    20    1
    37    19    38    1
    38    20    39    1
    39    21    22    1
    40    21    23    1
    41    21    24    1
    42    22    40    1
    43    22    41    1
    44    22    42    1
    45    23    43    1
    46    23    44    1
    47    23    45    1
    48    24    46    1
    49    24    47    1
@<TRIPOS>SUBSTRUCTURE
     1 ZINC001067316277        1 TEMP              0 ****  ****    0 ROOT


##########                                Name:    ZINC000942661662
##########                DOCK_Rotatable_Bonds:                   6
##########                         Heavy_Atoms:                  25
##########                    Molecular_Weight:             343.426
##########                DOCK_Rotatable_Bonds:                   6
##########                       Formal_Charge:           0.0399997
##########                     HBond_Acceptors:                   6
##########                        HBond_Donors:                   1
##########                         Heavy_Atoms:                  25
##########                          Grid_Score:          -29.727528
##########                     Grid_vdw_energy:          -28.573544
##########                      Grid_es_energy:           -1.153983
##########           Internal_energy_repulsive:          181.248978

@<TRIPOS>MOLECULE
ZINC000942661662
 50 52 1 0 0
SMALL
USER_CHARGES


@<TRIPOS>ATOM
      1 C1         -0.5748    1.6729   50.3355 C.3     1  ZINC000942661662   -0.1700
      2 C2         -1.3351    2.6910   49.4832 C.3     1  ZINC000942661662    0.1000
      3 N3         -1.8988    3.7291   50.3497 N.am    1  ZINC000942661662   -0.6000
      4 C4         -1.1050    4.7012   50.8408 C.2     1  ZINC000942661662    0.6000
      5 O5         -1.5730    5.5631   51.5600 O.2     1  ZINC000942661662   -0.5200
      6 C6          0.3302    4.7198   50.5063 C.2     1  ZINC000942661662   -0.2400
      7 C7          1.2623    5.6248   50.9227 C.2     1  ZINC000942661662    0.0700
      8 C8          1.0042    6.8053   51.8231 C.3     1  ZINC000942661662   -0.0900
      9 O9          2.4433    5.2863   50.3964 O.3     1  ZINC000942661662   -0.1700
     10 C10         2.3323    4.1831   49.6402 C.2     1  ZINC000942661662   -0.0300
     11 C11         1.0578    3.7636   49.6593 C.2     1  ZINC000942661662   -0.1900
     12 C12        -3.3255    3.7106   50.6821 C.3     1  ZINC000942661662    0.1400
     13 H13        -3.8395    4.5622   50.2364 H       1  ZINC000942661662    0.1100
     14 C14        -3.5381    3.6744   52.2186 C.3     1  ZINC000942661662   -0.1400
     15 C15        -4.9144    2.9910   52.3611 C.3     1  ZINC000942661662    0.1000
     16 N16        -5.1498    2.2227   51.1299 N.am    1  ZINC000942661662   -0.6200
     17 C17        -6.2530    1.4991   50.8544 C.2     1  ZINC000942661662    0.6100
     18 O18        -6.3395    0.8997   49.7989 O.2     1  ZINC000942661662   -0.5200
     19 C19        -7.3491    1.4340   51.8268 C.2     1  ZINC000942661662   -0.0600
     20 C20        -7.9487    0.2876   52.3034 C.2     1  ZINC000942661662   -0.0700
     21 C21        -7.6014   -1.1288   51.9238 C.3     1  ZINC000942661662   -0.0900
     22 C22        -8.9395    0.6869   53.2059 C.2     1  ZINC000942661662   -0.2100
     23 C23        -8.9281    2.0401   53.2635 C.2     1  ZINC000942661662    0.0500
     24 C24        -9.8361    2.8888   54.1157 C.3     1  ZINC000942661662   -0.0900
     25 N25        -7.9626    2.5062   52.4343 N.pl3   1  ZINC000942661662   -0.5400
     26 C26        -3.9800    2.3763   50.2452 C.3     1  ZINC000942661662    0.0900
     27 H27        -0.1553    0.9004   49.6909 H       1  ZINC000942661662    0.0700
     28 H28         0.2304    2.1762   50.8707 H       1  ZINC000942661662    0.0600
     29 H29        -1.2578    1.2167   51.0521 H       1  ZINC000942661662    0.0600
     30 H30        -0.6521    3.1471   48.7666 H       1  ZINC000942661662    0.0900
     31 H31        -2.1403    2.1877   48.9480 H       1  ZINC000942661662    0.0800
     32 H32         1.1411    6.5062   52.8624 H       1  ZINC000942661662    0.0900
     33 H33         1.7021    7.6066   51.5806 H       1  ZINC000942661662    0.0900
     34 H34        -0.0173    7.1566   51.6778 H       1  ZINC000942661662    0.1000
     35 H35         3.1406    3.7061   49.1058 H       1  ZINC000942661662    0.2100
     36 H36         0.6486    2.9035   49.1500 H       1  ZINC000942661662    0.1600
     37 H37        -2.7613    3.0817   52.7016 H       1  ZINC000942661662    0.1000
     38 H38        -3.5648    4.6843   52.6281 H       1  ZINC000942661662    0.0900
     39 H39        -4.9083    2.3209   53.2208 H       1  ZINC000942661662    0.0700
     40 H40        -5.6921    3.7451   52.4819 H       1  ZINC000942661662    0.0700
     41 H41        -6.8349   -1.5085   52.5994 H       1  ZINC000942661662    0.0700
     42 H42        -8.4918   -1.7533   51.9970 H       1  ZINC000942661662    0.0600
     43 H43        -7.2263   -1.1491   50.9006 H       1  ZINC000942661662    0.0800
     44 H44        -9.5973    0.0325   53.7586 H       1  ZINC000942661662    0.1400
     45 H45        -9.3717    3.0547   55.0878 H       1  ZINC000942661662    0.0800
     46 H46       -10.0039    3.8475   53.6249 H       1  ZINC000942661662    0.0700
     47 H47       -10.7895    2.3781   54.2509 H       1  ZINC000942661662    0.0900
     48 H48        -7.7440    3.4399   52.2887 H       1  ZINC000942661662    0.4100
     49 H49        -4.2967    2.4309   49.2036 H       1  ZINC000942661662    0.0800
     50 H50        -3.2850    1.5489   50.3883 H       1  ZINC000942661662    0.1000
@<TRIPOS>BOND
     1     1     2    1
     2     1    27    1
     3     1    28    1
     4     1    29    1
     5     2     3    1
     6     2    30    1
     7     2    31    1
     8     3     4   am
     9     3    12    1
    10     4     5    2
    11     4     6    1
    12     6    11    1
    13     6     7    2
    14     7     8    1
    15     7     9    1
    16     8    32    1
    17     8    33    1
    18     8    34    1
    19     9    10    1
    20    10    11    2
    21    10    35    1
    22    11    36    1
    23    12    13    1
    24    12    26    1
    25    12    14    1
    26    14    15    1
    27    14    37    1
    28    14    38    1
    29    15    16    1
    30    15    39    1
    31    15    40    1
    32    16    17   am
    33    16    26    1
    34    17    18    2
    35    17    19    1
    36    19    25    1
    37    19    20    2
    38    20    21    1
    39    20    22    1
    40    21    41    1
    41    21    42    1
    42    21    43    1
    43    22    23    2
    44    22    44    1
    45    23    24    1
    46    23    25    1
    47    24    45    1
    48    24    46    1
    49    24    47    1
    50    25    48    1
    51    26    49    1
    52    26    50    1
@<TRIPOS>SUBSTRUCTURE
     1 ZINC000942661662        1 TEMP              0 ****  ****    0 ROOT


##########                                Name:    ZINC000560467340
##########                DOCK_Rotatable_Bonds:                   7
##########                         Heavy_Atoms:                  24
##########                    Molecular_Weight:             369.481
##########                DOCK_Rotatable_Bonds:                   7
##########                       Formal_Charge:          -0.0199997
##########                     HBond_Acceptors:                   7
##########                        HBond_Donors:                   2
##########                         Heavy_Atoms:                  24
##########                          Grid_Score:          -29.716616
##########                     Grid_vdw_energy:          -29.575834
##########                      Grid_es_energy:           -0.140782
##########           Internal_energy_repulsive:           28.227079

@<TRIPOS>MOLECULE
ZINC000560467340
 44 46 1 0 0
SMALL
USER_CHARGES


@<TRIPOS>ATOM
      1 O1        -17.1665   -2.4936   58.4610 O.2     1  ZINC000560467340   -0.9600
      2 S2        -15.8929   -2.9126   58.9320 S.o2    1  ZINC000560467340    2.7100
      3 O3        -15.6764   -4.1553   59.5862 O.2     1  ZINC000560467340   -0.9500
      4 N4        -14.8797   -2.8907   57.6222 N.am    1  ZINC000560467340   -1.0900
      5 C5        -13.4467   -3.1375   57.8005 C.3     1  ZINC000560467340    0.1400
      6 C6        -12.8611   -3.7011   56.5042 C.3     1  ZINC000560467340   -0.0500
      7 C7        -11.3374   -3.7870   56.6117 C.3     1  ZINC000560467340   -0.0700
      8 C8        -10.8518   -2.8133   57.6545 C.ar    1  ZINC000560467340   -0.0900
      9 C9        -10.4533   -3.2726   58.8960 C.ar    1  ZINC000560467340   -0.0900
     10 C10       -10.0077   -2.3807   59.8530 C.ar    1  ZINC000560467340   -0.1500
     11 C11        -9.9603   -1.0265   59.5678 C.ar    1  ZINC000560467340    0.1000
     12 F12        -9.5245   -0.1538   60.5024 F       1  ZINC000560467340   -0.1400
     13 C13       -10.3592   -0.5678   58.3239 C.ar    1  ZINC000560467340   -0.1500
     14 C14       -10.7998   -1.4621   57.3668 C.ar    1  ZINC000560467340   -0.0900
     15 C15       -13.2582   -2.8062   55.3121 C.3     1  ZINC000560467340   -0.1300
     16 C16       -13.5042   -3.8042   54.1534 C.3     1  ZINC000560467340   -0.1200
     17 C17       -14.1828   -4.9985   54.8690 C.3     1  ZINC000560467340   -0.1600
     18 C18       -13.4491   -5.0949   56.2226 C.3     1  ZINC000560467340    0.1100
     19 H19       -12.6487   -5.8324   56.1615 H       1  ZINC000560467340    0.0600
     20 O20       -14.3698   -5.4565   57.2539 O.3     1  ZINC000560467340   -0.5500
     21 C21       -15.3372   -1.6624   60.0422 C.2     1  ZINC000560467340   -0.6900
     22 C22       -15.7855   -0.4071   59.9917 C.2     1  ZINC000560467340   -0.1000
     23 S23       -15.0085    0.5478   61.2479 S.3     1  ZINC000560467340    0.1500
     24 C24       -14.0913   -0.8528   61.7870 C.2     1  ZINC000560467340   -0.2200
     25 C25       -14.4066   -1.9096   61.0367 C.2     1  ZINC000560467340   -0.0700
     26 H26       -15.2351   -2.7145   56.7371 H       1  ZINC000560467340    0.4200
     27 H27       -12.9451   -2.2023   58.0494 H       1  ZINC000560467340    0.0600
     28 H28       -13.2993   -3.8549   58.6078 H       1  ZINC000560467340    0.0800
     29 H29       -11.0497   -4.7988   56.8974 H       1  ZINC000560467340    0.0800
     30 H30       -10.8907   -3.5404   55.6485 H       1  ZINC000560467340    0.0800
     31 H31       -10.4904   -4.3288   59.1182 H       1  ZINC000560467340    0.1300
     32 H32        -9.6971   -2.7396   60.8231 H       1  ZINC000560467340    0.1400
     33 H33       -10.3230    0.4883   58.1004 H       1  ZINC000560467340    0.1400
     34 H34       -11.1108   -1.1045   56.3962 H       1  ZINC000560467340    0.1300
     35 H35       -14.1693   -2.2520   55.5379 H       1  ZINC000560467340    0.0700
     36 H36       -12.4471   -2.1228   55.0612 H       1  ZINC000560467340    0.0800
     37 H37       -14.1702   -3.3723   53.4063 H       1  ZINC000560467340    0.0700
     38 H38       -12.5612   -4.1105   53.7006 H       1  ZINC000560467340    0.0700
     39 H39       -15.2431   -4.7982   55.0234 H       1  ZINC000560467340    0.0800
     40 H40       -14.0464   -5.9149   54.2949 H       1  ZINC000560467340    0.0700
     41 H41       -14.7621   -6.3331   57.1413 H       1  ZINC000560467340    0.3800
     42 H42       -16.5140   -0.0340   59.2870 H       1  ZINC000560467340    0.1800
     43 H43       -13.3846   -0.8574   62.6035 H       1  ZINC000560467340    0.1700
     44 H44       -13.9634   -2.8828   61.1885 H       1  ZINC000560467340    0.1500
@<TRIPOS>BOND
     1     1     2    2
     2     2     3    2
     3     2     4   am
     4     2    21    1
     5     4     5    1
     6     4    26    1
     7     5     6    1
     8     5    27    1
     9     5    28    1
    10     6    18    1
    11     6     7    1
    12     6    15    1
    13     7     8    1
    14     7    29    1
    15     7    30    1
    16     8    14   ar
    17     8     9   ar
    18     9    10   ar
    19     9    31    1
    20    10    11   ar
    21    10    32    1
    22    11    12    1
    23    11    13   ar
    24    13    14   ar
    25    13    33    1
    26    14    34    1
    27    15    16    1
    28    15    35    1
    29    15    36    1
    30    16    17    1
    31    16    37    1
    32    16    38    1
    33    17    18    1
    34    17    39    1
    35    17    40    1
    36    18    19    1
    37    18    20    1
    38    20    41    1
    39    21    25    1
    40    21    22    2
    41    22    23    1
    42    22    42    1
    43    23    24    1
    44    24    25    2
    45    24    43    1
    46    25    44    1
@<TRIPOS>SUBSTRUCTURE
     1 ZINC000560467340        1 TEMP              0 ****  ****    0 ROOT


##########                                Name:    ZINC000341804698
##########                DOCK_Rotatable_Bonds:                   7
##########                         Heavy_Atoms:                  24
##########                    Molecular_Weight:             342.318
##########                DOCK_Rotatable_Bonds:                   7
##########                       Formal_Charge:                0.02
##########                     HBond_Acceptors:                   8
##########                        HBond_Donors:                   0
##########                         Heavy_Atoms:                  24
##########                          Grid_Score:          -29.700272
##########                     Grid_vdw_energy:          -29.198605
##########                      Grid_es_energy:           -0.501666
##########           Internal_energy_repulsive:           27.481493

@<TRIPOS>MOLECULE
ZINC000341804698
 41 42 1 0 0
SMALL
USER_CHARGES


@<TRIPOS>ATOM
      1 C1        -10.2914    3.1448   54.3926 C.3     1  ZINC000341804698    0.0300
      2 O2         -9.0006    2.6651   54.0105 O.3     1  ZINC000341804698   -0.3900
      3 C3         -8.3567    3.4607   53.0133 C.3     1  ZINC000341804698    0.0700
      4 C4         -7.3246    2.6099   52.2704 C.3     1  ZINC000341804698    0.0400
      5 C5         -7.5341    1.1896   52.5957 C.1     1  ZINC000341804698    0.2200
      6 N6         -7.6957    0.0937   52.8468 N.1     1  ZINC000341804698   -0.4200
      7 C7         -7.4840    2.8163   50.7624 C.3     1  ZINC000341804698   -0.1200
      8 C8         -6.4722    1.9369   50.0209 C.3     1  ZINC000341804698    0.1100
      9 N9         -5.1263    2.2314   50.5312 N.am    1  ZINC000341804698   -0.6000
     10 C10        -4.1307    2.5688   49.6878 C.2     1  ZINC000341804698    0.5700
     11 O11        -4.3421    2.6318   48.4924 O.2     1  ZINC000341804698   -0.5200
     12 C12        -2.7815    2.8623   50.2164 C.ar    1  ZINC000341804698   -0.0900
     13 C13        -2.5131    4.0999   50.8030 C.ar    1  ZINC000341804698   -0.1100
     14 C14        -1.2526    4.3706   51.2953 C.ar    1  ZINC000341804698   -0.0800
     15 C15        -0.2533    3.4193   51.2095 C.ar    1  ZINC000341804698   -0.1700
     16 C16        -0.5107    2.1854   50.6271 C.ar    1  ZINC000341804698    0.1100
     17 O17         0.4757    1.2539   50.5449 O.3     1  ZINC000341804698   -0.3100
     18 C18         1.7855    1.6588   50.9483 C.3     1  ZINC000341804698    0.6000
     19 F19         1.7749    1.9835   52.3090 F       1  ZINC000341804698   -0.1600
     20 F20         2.6864    0.6120   50.7256 F       1  ZINC000341804698   -0.1300
     21 F21         2.1773    2.7774   50.2051 F       1  ZINC000341804698   -0.1600
     22 C22        -1.7734    1.9010   50.1356 C.ar    1  ZINC000341804698   -0.0700
     23 C23        -4.8864    2.1516   51.9785 C.3     1  ZINC000341804698    0.0900
     24 C24        -5.9159    3.0285   52.6981 C.3     1  ZINC000341804698   -0.1200
     25 H25       -10.1996    4.1534   54.7955 H       1  ZINC000341804698    0.0400
     26 H26       -10.9459    3.1599   53.5211 H       1  ZINC000341804698    0.0500
     27 H27       -10.7132    2.4869   55.1524 H       1  ZINC000341804698    0.0900
     28 H28        -9.1002    3.8292   52.3066 H       1  ZINC000341804698    0.0700
     29 H29        -7.8573    4.3049   53.4886 H       1  ZINC000341804698    0.0600
     30 H30        -8.4948    2.5400   50.4624 H       1  ZINC000341804698    0.1000
     31 H31        -7.3046    3.8631   50.5174 H       1  ZINC000341804698    0.0900
     32 H32        -6.7063    0.8862   50.1926 H       1  ZINC000341804698    0.0700
     33 H33        -6.5136    2.1530   48.9534 H       1  ZINC000341804698    0.1100
     34 H34        -3.2915    4.8455   50.8715 H       1  ZINC000341804698    0.1400
     35 H35        -1.0461    5.3288   51.7488 H       1  ZINC000341804698    0.1400
     36 H36         0.7313    3.6366   51.5964 H       1  ZINC000341804698    0.1400
     37 H37        -1.9751    0.9415   49.6827 H       1  ZINC000341804698    0.1500
     38 H38        -4.9911    1.1184   52.3098 H       1  ZINC000341804698    0.0800
     39 H39        -3.8814    2.5092   52.2027 H       1  ZINC000341804698    0.1100
     40 H40        -5.7513    4.0734   52.4349 H       1  ZINC000341804698    0.1000
     41 H41        -5.8107    2.9033   53.7758 H       1  ZINC000341804698    0.0900
@<TRIPOS>BOND
     1     1     2    1
     2     1    25    1
     3     1    26    1
     4     1    27    1
     5     2     3    1
     6     3     4    1
     7     3    28    1
     8     3    29    1
     9     4    24    1
    10     4     5    1
    11     4     7    1
    12     5     6    3
    13     7     8    1
    14     7    30    1
    15     7    31    1
    16     8     9    1
    17     8    32    1
    18     8    33    1
    19     9    10   am
    20     9    23    1
    21    10    11    2
    22    10    12    1
    23    12    22   ar
    24    12    13   ar
    25    13    14   ar
    26    13    34    1
    27    14    15   ar
    28    14    35    1
    29    15    16   ar
    30    15    36    1
    31    16    17    1
    32    16    22   ar
    33    17    18    1
    34    18    19    1
    35    18    20    1
    36    18    21    1
    37    22    37    1
    38    23    24    1
    39    23    38    1
    40    23    39    1
    41    24    40    1
    42    24    41    1
@<TRIPOS>SUBSTRUCTURE
     1 ZINC000341804698        1 TEMP              0 ****  ****    0 ROOT


##########                                Name:    ZINC000530457945
##########                DOCK_Rotatable_Bonds:                   4
##########                         Heavy_Atoms:                  25
##########                    Molecular_Weight:             355.827
##########                DOCK_Rotatable_Bonds:                   4
##########                       Formal_Charge:           0.0199997
##########                     HBond_Acceptors:                   7
##########                        HBond_Donors:                   1
##########                         Heavy_Atoms:                  25
##########                          Grid_Score:          -29.630543
##########                     Grid_vdw_energy:          -30.094309
##########                      Grid_es_energy:            0.463765
##########           Internal_energy_repulsive:           33.230671

@<TRIPOS>MOLECULE
ZINC000530457945
 43 46 1 0 0
SMALL
USER_CHARGES


@<TRIPOS>ATOM
      1 C1        -11.8940    0.0852   56.1406 C.3     1  ZINC000530457945   -0.1700
      2 C2        -11.0715   -0.9851   55.4203 C.3     1  ZINC000530457945    0.0900
      3 H3        -10.0364   -0.9479   55.7599 H       1  ZINC000530457945    0.1100
      4 C4        -11.1324   -0.7561   53.8954 C.3     1  ZINC000530457945   -0.1200
      5 H5        -12.0227   -0.1879   53.6262 H       1  ZINC000530457945    0.1100
      6 C6         -9.8890   -0.0552   53.4119 C.2     1  ZINC000530457945    0.5300
      7 O7         -9.5131    0.9595   53.9595 O.2     1  ZINC000530457945   -0.4700
      8 N8         -9.1947   -0.5561   52.3709 N.am    1  ZINC000530457945   -0.6200
      9 C9         -8.0433    0.0943   51.9217 C.2     1  ZINC000530457945    0.4800
     10 N10        -6.9499   -0.5035   51.4935 N.2     1  ZINC000530457945   -0.3000
     11 N11        -6.0414    0.5043   51.1399 N.pl3   1  ZINC000530457945   -0.2800
     12 C12        -4.7759    0.4809   50.6448 C.2     1  ZINC000530457945    0.1400
     13 C13        -4.1157    1.6341   50.3886 C.2     1  ZINC000530457945   -0.0800
     14 Cl14       -2.4998    1.5844   49.7564 Cl      1  ZINC000530457945   -0.0200
     15 C15        -4.7341    2.8699   50.6321 C.2     1  ZINC000530457945   -0.0500
     16 C16        -6.0025    2.9015   51.1278 C.2     1  ZINC000530457945   -0.0900
     17 C17        -6.6701    1.6913   51.3874 C.2     1  ZINC000530457945    0.3000
     18 N18        -7.8830    1.4121   51.8548 N.2     1  ZINC000530457945   -0.5500
     19 C19       -11.2096   -2.1980   53.3282 C.3     1  ZINC000530457945   -0.1200
     20 C20       -12.0723   -2.9100   54.3999 C.3     1  ZINC000530457945    0.0400
     21 N21       -11.6396   -2.3190   55.6881 N.3     1  ZINC000530457945   -0.4900
     22 C22       -12.7074   -2.2374   56.5849 C.ar    1  ZINC000530457945    0.1000
     23 C23       -13.9513   -1.7999   56.1483 C.ar    1  ZINC000530457945   -0.1600
     24 C24       -15.0050   -1.7208   57.0375 C.ar    1  ZINC000530457945   -0.1100
     25 C25       -14.8226   -2.0762   58.3615 C.ar    1  ZINC000530457945   -0.1300
     26 C26       -13.5856   -2.5121   58.7995 C.ar    1  ZINC000530457945   -0.1100
     27 C27       -12.5291   -2.5990   57.9142 C.ar    1  ZINC000530457945   -0.1000
     28 H28       -11.9497   -0.1531   57.2028 H       1  ZINC000530457945    0.0700
     29 H29       -11.4186    1.0574   56.0108 H       1  ZINC000530457945    0.0600
     30 H30       -12.8998    0.1136   55.7214 H       1  ZINC000530457945    0.0600
     31 H31        -9.4947   -1.3684   51.9337 H       1  ZINC000530457945    0.4300
     32 H32        -4.2929   -0.4661   50.4546 H       1  ZINC000530457945    0.1800
     33 H33        -4.2075    3.7904   50.4280 H       1  ZINC000530457945    0.1600
     34 H34        -6.4900    3.8458   51.3201 H       1  ZINC000530457945    0.1700
     35 H35       -11.7048   -2.2098   52.3574 H       1  ZINC000530457945    0.0900
     36 H36       -10.2179   -2.6460   53.2644 H       1  ZINC000530457945    0.0900
     37 H37       -13.1304   -2.7135   54.2271 H       1  ZINC000530457945    0.0700
     38 H38       -11.8783   -3.9825   54.3919 H       1  ZINC000530457945    0.0900
     39 H39       -14.0943   -1.5216   55.1146 H       1  ZINC000530457945    0.1200
     40 H40       -15.9725   -1.3808   56.6987 H       1  ZINC000530457945    0.1200
     41 H41       -15.6481   -2.0127   59.0550 H       1  ZINC000530457945    0.1200
     42 H42       -13.4464   -2.7888   59.8341 H       1  ZINC000530457945    0.1300
     43 H43       -11.5633   -2.9398   58.2569 H       1  ZINC000530457945    0.1300
@<TRIPOS>BOND
     1     1     2    1
     2     1    28    1
     3     1    29    1
     4     1    30    1
     5     2     3    1
     6     2    21    1
     7     2     4    1
     8     4     5    1
     9     4     6    1
    10     4    19    1
    11     6     7    2
    12     6     8   am
    13     8     9    1
    14     8    31    1
    15     9    18    1
    16     9    10    2
    17    10    11    1
    18    11    17    1
    19    11    12    1
    20    12    13    2
    21    12    32    1
    22    13    14    1
    23    13    15    1
    24    15    16    2
    25    15    33    1
    26    16    17    1
    27    16    34    1
    28    17    18    2
    29    19    20    1
    30    19    35    1
    31    19    36    1
    32    20    21    1
    33    20    37    1
    34    20    38    1
    35    21    22    1
    36    22    27   ar
    37    22    23   ar
    38    23    24   ar
    39    23    39    1
    40    24    25   ar
    41    24    40    1
    42    25    26   ar
    43    25    41    1
    44    26    27   ar
    45    26    42    1
    46    27    43    1
@<TRIPOS>SUBSTRUCTURE
     1 ZINC000530457945        1 TEMP              0 ****  ****    0 ROOT


##########                                Name:    ZINC000338927927
##########                DOCK_Rotatable_Bonds:                   9
##########                         Heavy_Atoms:                  23
##########                    Molecular_Weight:             336.286
##########                DOCK_Rotatable_Bonds:                   9
##########                       Formal_Charge:         -0.00999999
##########                     HBond_Acceptors:                   9
##########                        HBond_Donors:                   2
##########                         Heavy_Atoms:                  23
##########                          Grid_Score:          -29.620384
##########                     Grid_vdw_energy:          -27.032064
##########                      Grid_es_energy:           -2.588320
##########           Internal_energy_repulsive:           13.814466

@<TRIPOS>MOLECULE
ZINC000338927927
 39 39 1 0 0
SMALL
USER_CHARGES


@<TRIPOS>ATOM
      1 C1          0.8289    5.3049   50.5765 C.3     1  <0>        -0.1600
      2 C2         -0.5374    4.6823   50.8702 C.3     1  <0>        -0.1100
      3 C3         -0.6479    3.3343   50.1551 C.3     1  <0>        -0.1000
      4 H4         -0.3218    3.4439   49.1208 H       1  <0>         0.1400
      5 C5         -2.0802    2.8666   50.1833 C.2     1  <0>         0.5200
      6 O6         -2.7814    3.0005   49.2028 O.2     1  <0>        -0.4700
      7 N7         -2.5821    2.2993   51.2982 N.am    1  <0>        -0.6700
      8 C8         -3.9118    1.8650   51.3245 C.ar    1  <0>         0.2200
      9 C9         -4.2907    0.7428   50.5996 C.ar    1  <0>        -0.2300
     10 C10        -5.6061    0.3126   50.6251 C.ar    1  <0>         0.1700
     11 F11        -5.9724   -0.7794   49.9191 F       1  <0>        -0.1300
     12 C12        -6.5460    0.9990   51.3732 C.ar    1  <0>        -0.2500
     13 C13        -6.1712    2.1222   52.1000 C.ar    1  <0>         0.2600
     14 N14        -7.1205    2.8152   52.8547 N.pl3   1  <0>        -0.7400
     15 C15        -7.9189    2.1058   53.8575 C.3     1  <0>         0.0800
     16 C16        -9.3861    2.5189   53.7267 C.3     1  <0>         0.4500
     17 F17        -9.4803    3.9146   53.7378 F       1  <0>        -0.1800
     18 F18        -9.9040    2.0261   52.5241 F       1  <0>        -0.1700
     19 F19       -10.1158    1.9937   54.7986 F       1  <0>        -0.1800
     20 C20        -4.8518    2.5521   52.0797 C.ar    1  <0>        -0.2000
     21 C21         0.2247    2.3227   50.8524 C.2     1  <0>         0.4600
     22 O22         0.5312    2.4849   52.0098 O.2     1  <0>        -0.4600
     23 O23         0.6614    1.2414   50.1877 O.3     1  <0>        -0.3500
     24 C24         0.1347    1.0322   48.8509 C.3     1  <0>         0.0300
     25 H25         0.9372    5.4537   49.5022 H       1  <0>         0.0600
     26 H26         0.9076    6.2653   51.0861 H       1  <0>         0.0600
     27 H27         1.6155    4.6394   50.9323 H       1  <0>         0.0800
     28 H28        -0.6457    4.5337   51.9446 H       1  <0>         0.0800
     29 H29        -1.3239    5.3479   50.5144 H       1  <0>         0.0800
     30 H30        -2.0213    2.1921   52.0823 H       1  <0>         0.4200
     31 H31        -3.5585    0.2056   50.0150 H       1  <0>         0.1400
     32 H32        -7.5718    0.6617   51.3918 H       1  <0>         0.1400
     33 H33        -7.2512    3.7660   52.7148 H       1  <0>         0.4100
     34 H34        -7.8285    1.0310   53.6999 H       1  <0>         0.1100
     35 H35        -7.5577    2.3584   54.8544 H       1  <0>         0.1100
     36 H36        -4.5587    3.4249   52.6441 H       1  <0>         0.1500
     37 H37         0.5681    0.1261   48.4273 H       1  <0>         0.1000
     38 H38        -0.9492    0.9279   48.8996 H       1  <0>         0.0600
     39 H39         0.3898    1.8852   48.2222 H       1  <0>         0.0600
@<TRIPOS>BOND
     1     1     2    1
     2     1    25    1
     3     1    26    1
     4     1    27    1
     5     2     3    1
     6     2    28    1
     7     2    29    1
     8     3     4    1
     9     3     5    1
    10     3    21    1
    11     5     6    2
    12     5     7   am
    13     7     8    1
    14     7    30    1
    15     8    20   ar
    16     8     9   ar
    17     9    10   ar
    18     9    31    1
    19    10    11    1
    20    10    12   ar
    21    12    13   ar
    22    12    32    1
    23    13    14    1
    24    13    20   ar
    25    14    15    1
    26    14    33    1
    27    15    16    1
    28    15    34    1
    29    15    35    1
    30    16    17    1
    31    16    18    1
    32    16    19    1
    33    20    36    1
    34    21    22    2
    35    21    23    1
    36    23    24    1
    37    24    37    1
    38    24    38    1
    39    24    39    1
@<TRIPOS>SUBSTRUCTURE
     1 <0>         1 TEMP              0 ****  ****    0 ROOT


##########                                Name:    ZINC000337709254
##########                DOCK_Rotatable_Bonds:                   7
##########                         Heavy_Atoms:                  22
##########                    Molecular_Weight:              329.42
##########                DOCK_Rotatable_Bonds:                   7
##########                       Formal_Charge:           0.0300004
##########                     HBond_Acceptors:                   8
##########                        HBond_Donors:                   2
##########                         Heavy_Atoms:                  22
##########                          Grid_Score:          -29.604435
##########                     Grid_vdw_energy:          -27.713160
##########                      Grid_es_energy:           -1.891276
##########           Internal_energy_repulsive:           11.204279

@<TRIPOS>MOLECULE
ZINC000337709254
 45 46 1 0 0
SMALL
USER_CHARGES


@<TRIPOS>ATOM
      1 C1        -14.7782   -3.2919   56.8417 C.3     1  ZINC000337709254   -0.6700
      2 S2        -13.6522   -4.5543   56.1867 S.o2    1  ZINC000337709254    2.6100
      3 O3        -14.1654   -5.8563   56.4333 O.2     1  ZINC000337709254   -0.9500
      4 O4        -13.1832   -4.1836   54.8976 O.2     1  ZINC000337709254   -0.9500
      5 N5        -12.3115   -4.4539   57.1535 N.am    1  ZINC000337709254   -1.1200
      6 C6        -11.5566   -3.2008   57.2311 C.3     1  ZINC000337709254    0.1200
      7 C7        -11.1570   -2.9353   58.6839 C.3     1  ZINC000337709254   -0.1100
      8 H8        -11.9986   -3.1236   59.3506 H       1  ZINC000337709254    0.1100
      9 C9         -9.9438   -3.8123   59.0814 C.3     1  ZINC000337709254   -0.1200
     10 C10        -9.3227   -3.0224   60.2602 C.3     1  ZINC000337709254   -0.1200
     11 C11        -9.4815   -1.5438   59.8502 C.3     1  ZINC000337709254   -0.1400
     12 C12       -10.6512   -1.4872   58.8487 C.3     1  ZINC000337709254    0.1500
     13 H13       -11.4466   -0.8523   59.2390 H       1  ZINC000337709254    0.1000
     14 N14       -10.1838   -0.9705   57.5601 N.am    1  ZINC000337709254   -0.7200
     15 C15       -10.8826   -0.0078   56.9265 C.2     1  ZINC000337709254    0.5300
     16 O16       -11.8992    0.4298   57.4227 O.2     1  ZINC000337709254   -0.5100
     17 C17       -10.4009    0.5250   55.6018 C.3     1  ZINC000337709254    0.0200
     18 C18       -10.4812   -0.5366   54.5854 C.1     1  ZINC000337709254    0.2000
     19 N19       -10.5432   -1.3560   53.8009 N.1     1  ZINC000337709254   -0.3900
     20 C20       -11.2742    1.7099   55.1779 C.3     1  ZINC000337709254   -0.1500
     21 C21       -10.7297    2.2937   53.8717 C.3     1  ZINC000337709254    0.0600
     22 O22        -9.3676    2.6840   54.0572 O.3     1  ZINC000337709254   -0.3700
     23 C23        -8.4950    1.6083   54.4085 C.3     1  ZINC000337709254    0.0600
     24 C24        -8.9498    0.9969   55.7363 C.3     1  ZINC000337709254   -0.1300
     25 H25       -15.0096   -3.5164   57.8829 H       1  ZINC000337709254    0.1300
     26 H26       -14.3030   -2.3129   56.7781 H       1  ZINC000337709254    0.1300
     27 H27       -15.6986   -3.2876   56.2578 H       1  ZINC000337709254    0.1300
     28 H28       -12.0260   -5.2248   57.6684 H       1  ZINC000337709254    0.4200
     29 H29       -10.6601   -3.2780   56.6160 H       1  ZINC000337709254    0.0600
     30 H30       -12.1762   -2.3804   56.8689 H       1  ZINC000337709254    0.0900
     31 H31       -10.2711   -4.7994   59.4077 H       1  ZINC000337709254    0.0800
     32 H32        -9.2374   -3.8919   58.2550 H       1  ZINC000337709254    0.0700
     33 H33        -9.8672   -3.2232   61.1828 H       1  ZINC000337709254    0.0700
     34 H34        -8.2687   -3.2753   60.3755 H       1  ZINC000337709254    0.0700
     35 H35        -9.7121   -0.9363   60.7254 H       1  ZINC000337709254    0.0800
     36 H36        -8.5663   -1.1868   59.3781 H       1  ZINC000337709254    0.0700
     37 H37        -9.3715   -1.3214   57.1627 H       1  ZINC000337709254    0.4000
     38 H38       -12.2991    1.3710   55.0262 H       1  ZINC000337709254    0.0900
     39 H39       -11.2536    2.4740   55.9549 H       1  ZINC000337709254    0.1100
     40 H40       -10.7883    1.5415   53.0850 H       1  ZINC000337709254    0.0500
     41 H41       -11.3217    3.1638   53.5877 H       1  ZINC000337709254    0.1100
     42 H42        -8.5243    0.8470   53.6288 H       1  ZINC000337709254    0.0500
     43 H43        -7.4772    1.9845   54.5112 H       1  ZINC000337709254    0.1100
     44 H44        -8.8821    1.7466   56.5246 H       1  ZINC000337709254    0.1100
     45 H45        -8.3123    0.1481   55.9838 H       1  ZINC000337709254    0.0900
@<TRIPOS>BOND
     1     1     2    1
     2     1    25    1
     3     1    26    1
     4     1    27    1
     5     2     3    2
     6     2     4    2
     7     2     5   am
     8     5     6    1
     9     5    28    1
    10     6     7    1
    11     6    29    1
    12     6    30    1
    13     7     8    1
    14     7    12    1
    15     7     9    1
    16     9    10    1
    17     9    31    1
    18     9    32    1
    19    10    11    1
    20    10    33    1
    21    10    34    1
    22    11    12    1
    23    11    35    1
    24    11    36    1
    25    12    13    1
    26    12    14    1
    27    14    15   am
    28    14    37    1
    29    15    16    2
    30    15    17    1
    31    17    24    1
    32    17    18    1
    33    17    20    1
    34    18    19    3
    35    20    21    1
    36    20    38    1
    37    20    39    1
    38    21    22    1
    39    21    40    1
    40    21    41    1
    41    22    23    1
    42    23    24    1
    43    23    42    1
    44    23    43    1
    45    24    44    1
    46    24    45    1
@<TRIPOS>SUBSTRUCTURE
     1 ZINC000337709254        1 TEMP              0 ****  ****    0 ROOT


##########                                Name:    ZINC001078748831
##########                DOCK_Rotatable_Bonds:                   6
##########                         Heavy_Atoms:                  23
##########                    Molecular_Weight:             333.417
##########                DOCK_Rotatable_Bonds:                   6
##########                       Formal_Charge:           0.0299999
##########                     HBond_Acceptors:                   9
##########                        HBond_Donors:                   2
##########                         Heavy_Atoms:                  23
##########                          Grid_Score:          -29.590744
##########                     Grid_vdw_energy:          -30.373260
##########                      Grid_es_energy:            0.782516
##########           Internal_energy_repulsive:            5.559518

@<TRIPOS>MOLECULE
ZINC001078748831
 42 45 1 0 0
SMALL
USER_CHARGES


@<TRIPOS>ATOM
      1 C1         -4.7068    0.6625   49.9995 C.3     1  ZINC001078748831    0.1000
      2 N2         -5.8418    0.3012   50.8525 N.pl3   1  ZINC001078748831   -0.1400
      3 N3         -6.4544   -0.8276   50.8077 N.2     1  ZINC001078748831   -0.2900
      4 C4         -7.4173   -0.8279   51.6979 C.2     1  ZINC001078748831    0.0400
      5 C5         -7.3586    0.4322   52.3262 C.2     1  ZINC001078748831   -0.0500
      6 C6         -8.2328    0.9342   53.4071 C.2     1  ZINC001078748831    0.6200
      7 O7         -7.8733    1.8704   54.0940 O.2     1  ZINC001078748831   -0.5200
      8 N8         -9.4284    0.3539   53.6311 N.am    1  ZINC001078748831   -0.7000
      9 C9        -10.2941    0.8505   54.7037 C.3     1  ZINC001078748831    0.1500
     10 H10       -10.2930    1.9377   54.7802 H       1  ZINC001078748831    0.1100
     11 C11       -10.0806    0.1361   56.0506 C.3     1  ZINC001078748831   -0.1800
     12 C12       -11.1539   -0.8726   55.6026 C.3     1  ZINC001078748831    0.0800
     13 H13       -10.7515   -1.7264   55.0573 H       1  ZINC001078748831    0.1000
     14 N14       -12.0791   -1.2640   56.6744 N.3     1  ZINC001078748831   -0.6700
     15 C15       -11.6854   -2.5496   57.2664 C.3     1  ZINC001078748831    0.1400
     16 C16       -12.5902   -3.6385   56.7499 C.2     1  ZINC001078748831    0.0600
     17 N17       -13.0930   -4.5816   57.4973 N.2     1  ZINC001078748831   -0.5700
     18 S18       -13.9708   -5.5066   56.5987 S.3     1  ZINC001078748831    0.6800
     19 N19       -13.7664   -4.7764   55.2355 N.2     1  ZINC001078748831   -0.5700
     20 C20       -12.9870   -3.7492   55.4316 C.2     1  ZINC001078748831    0.0500
     21 C21       -11.6948    0.2371   54.6954 C.3     1  ZINC001078748831   -0.1000
     22 C22       -12.9212    1.0580   55.0954 C.3     1  ZINC001078748831   -0.1000
     23 C23       -13.2023    1.2108   53.5895 C.3     1  ZINC001078748831   -0.1400
     24 C24       -12.4078   -0.0916   53.3833 C.3     1  ZINC001078748831   -0.1200
     25 N25        -6.3523    1.0700   51.7480 N.2     1  ZINC001078748831   -0.2500
     26 H26        -3.7776    0.3677   50.4871 H       1  ZINC001078748831    0.1000
     27 H27        -4.7937    0.1485   49.0422 H       1  ZINC001078748831    0.1100
     28 H28        -4.7047    1.7399   49.8346 H       1  ZINC001078748831    0.1100
     29 H29        -8.1120   -1.6282   51.9062 H       1  ZINC001078748831    0.2100
     30 H30        -9.7158   -0.3924   53.0822 H       1  ZINC001078748831    0.4100
     31 H31        -9.0885   -0.3023   56.1592 H       1  ZINC001078748831    0.0700
     32 H32       -10.3766    0.7336   56.9128 H       1  ZINC001078748831    0.1000
     33 H33       -12.1404   -0.5450   57.3796 H       1  ZINC001078748831    0.3500
     34 H34       -10.6542   -2.7744   56.9942 H       1  ZINC001078748831    0.1000
     35 H35       -11.7702   -2.4911   58.3516 H       1  ZINC001078748831    0.0600
     36 H36       -12.6821   -3.0671   54.6516 H       1  ZINC001078748831    0.2000
     37 H37       -13.6794    0.4817   55.6257 H       1  ZINC001078748831    0.1000
     38 H38       -12.6764    1.9967   55.5922 H       1  ZINC001078748831    0.0700
     39 H39       -14.2578    1.1231   53.3318 H       1  ZINC001078748831    0.0700
     40 H40       -12.7288    2.0857   53.1441 H       1  ZINC001078748831    0.0800
     41 H41       -11.7527   -0.0711   52.5124 H       1  ZINC001078748831    0.0700
     42 H42       -13.0216   -0.9910   53.4323 H       1  ZINC001078748831    0.0900
@<TRIPOS>BOND
     1     1     2    1
     2     1    26    1
     3     1    27    1
     4     1    28    1
     5     2    25    1
     6     2     3    1
     7     3     4    2
     8     4     5    1
     9     4    29    1
    10     5     6    1
    11     5    25    2
    12     6     7    2
    13     6     8   am
    14     8     9    1
    15     8    30    1
    16     9    10    1
    17     9    21    1
    18     9    11    1
    19    11    12    1
    20    11    31    1
    21    11    32    1
    22    12    13    1
    23    12    14    1
    24    12    21    1
    25    14    15    1
    26    14    33    1
    27    15    16    1
    28    15    34    1
    29    15    35    1
    30    16    20    1
    31    16    17    2
    32    17    18    1
    33    18    19    1
    34    19    20    2
    35    20    36    1
    36    21    24    1
    37    21    22    1
    38    22    23    1
    39    22    37    1
    40    22    38    1
    41    23    24    1
    42    23    39    1
    43    23    40    1
    44    24    41    1
    45    24    42    1
@<TRIPOS>SUBSTRUCTURE
     1 ZINC001078748831        1 TEMP              0 ****  ****    0 ROOT


##########                                Name:    ZINC000245764166
##########                DOCK_Rotatable_Bonds:                   8
##########                         Heavy_Atoms:                  26
##########                    Molecular_Weight:             359.512
##########                DOCK_Rotatable_Bonds:                   8
##########                       Formal_Charge:          -0.0100008
##########                     HBond_Acceptors:                   5
##########                        HBond_Donors:                   2
##########                         Heavy_Atoms:                  26
##########                          Grid_Score:          -29.570045
##########                     Grid_vdw_energy:          -29.838850
##########                      Grid_es_energy:            0.268805
##########           Internal_energy_repulsive:           28.579472

@<TRIPOS>MOLECULE
ZINC000245764166
 59 61 1 0 0
SMALL
USER_CHARGES


@<TRIPOS>ATOM
      1 C1          2.7623    1.7907   49.4620 C.3     1  ZINC000245764166    0.0200
      2 N2          1.6534    2.7440   49.3217 N.3     1  ZINC000245764166   -0.5300
      3 C3          0.8995    2.4965   48.0854 C.3     1  ZINC000245764166    0.0600
      4 C4          1.7516    2.8590   46.8965 C.ar    1  ZINC000245764166   -0.0800
      5 C5          2.5343    1.8957   46.2877 C.ar    1  ZINC000245764166   -0.1000
      6 C6          3.3159    2.2282   45.1971 C.ar    1  ZINC000245764166   -0.1200
      7 C7          3.3146    3.5237   44.7149 C.ar    1  ZINC000245764166   -0.1200
      8 C8          2.5313    4.4867   45.3231 C.ar    1  ZINC000245764166   -0.1200
      9 C9          1.7463    4.1533   46.4111 C.ar    1  ZINC000245764166   -0.1200
     10 C10         0.7701    2.7002   50.4946 C.3     1  ZINC000245764166    0.0500
     11 C11         0.2991    4.1164   50.8316 C.3     1  ZINC000245764166    0.1900
     12 C12         0.3800    4.3346   52.3438 C.3     1  ZINC000245764166   -0.1600
     13 C13         1.1936    5.1340   50.1209 C.3     1  ZINC000245764166   -0.1500
     14 N14        -1.0860    4.2891   50.3867 N.am    1  ZINC000245764166   -0.7400
     15 C15        -2.0530    3.4810   50.8646 C.2     1  ZINC000245764166    0.7000
     16 O16        -1.7757    2.6077   51.6638 O.2     1  ZINC000245764166   -0.5800
     17 N17        -3.3276    3.6410   50.4565 N.am    1  ZINC000245764166   -0.7500
     18 C18        -4.3784    2.7614   50.9747 C.3     1  ZINC000245764166    0.1800
     19 H19        -4.0210    2.2701   51.8797 H       1  ZINC000245764166    0.0900
     20 C20        -4.7102    1.7030   49.9258 C.3     1  ZINC000245764166   -0.1300
     21 C21        -5.7665    0.7552   50.5046 C.3     1  ZINC000245764166   -0.1100
     22 C22        -7.0397    1.5582   50.7703 C.3     1  ZINC000245764166   -0.1100
     23 C23        -6.7846    2.6909   51.7368 C.3     1  ZINC000245764166    0.0900
     24 H24        -7.6817    3.3058   51.8079 H       1  ZINC000245764166    0.0600
     25 O25        -6.4251    2.2391   53.0494 O.3     1  ZINC000245764166   -0.3600
     26 C26        -5.8709    3.3827   53.7297 C.3     1  ZINC000245764166    0.0500
     27 C27        -5.3058    4.3289   52.6509 C.3     1  ZINC000245764166   -0.1500
     28 C28        -5.6150    3.5978   51.3106 C.3     1  ZINC000245764166   -0.1300
     29 H29        -5.8905    4.2860   50.5115 H       1  ZINC000245764166    0.1000
     30 H30         3.4103    1.8559   48.5879 H       1  ZINC000245764166    0.0800
     31 H31         3.3354    2.0293   50.3578 H       1  ZINC000245764166    0.0700
     32 H32         2.3638    0.7794   49.5442 H       1  ZINC000245764166    0.0200
     33 H33         0.6284    1.4423   48.0301 H       1  ZINC000245764166    0.0400
     34 H34        -0.0048    3.1049   48.0833 H       1  ZINC000245764166    0.1100
     35 H35         2.5353    0.8836   46.6644 H       1  ZINC000245764166    0.1200
     36 H36         3.9279    1.4758   44.7219 H       1  ZINC000245764166    0.1200
     37 H37         3.9258    3.7835   43.8633 H       1  ZINC000245764166    0.1200
     38 H38         2.5304    5.4990   44.9466 H       1  ZINC000245764166    0.1200
     39 H39         1.1343    4.9057   46.8862 H       1  ZINC000245764166    0.1200
     40 H40        -0.0937    2.0724   50.2758 H       1  ZINC000245764166    0.0400
     41 H41         1.3139    2.2866   51.3439 H       1  ZINC000245764166    0.1000
     42 H42         1.4106    4.2061   52.6747 H       1  ZINC000245764166    0.0700
     43 H43         0.0444    5.3435   52.5838 H       1  ZINC000245764166    0.0800
     44 H44        -0.2573    3.6096   52.8501 H       1  ZINC000245764166    0.0500
     45 H45         1.0427    5.0606   49.0438 H       1  ZINC000245764166    0.0600
     46 H46         0.9378    6.1392   50.4559 H       1  ZINC000245764166    0.0800
     47 H47         2.2375    4.9272   50.3565 H       1  ZINC000245764166    0.0600
     48 H48        -1.3072    4.9851   49.7482 H       1  ZINC000245764166    0.3900
     49 H49        -3.5491    4.3384   49.8199 H       1  ZINC000245764166    0.3900
     50 H50        -5.1027    2.1854   49.0307 H       1  ZINC000245764166    0.0600
     51 H51        -3.8107    1.1401   49.6768 H       1  ZINC000245764166    0.0700
     52 H52        -5.9767   -0.0407   49.7901 H       1  ZINC000245764166    0.0700
     53 H53        -5.4022    0.3250   51.4376 H       1  ZINC000245764166    0.0700
     54 H54        -7.4057    1.9682   49.8291 H       1  ZINC000245764166    0.0800
     55 H55        -7.7980    0.8964   51.1887 H       1  ZINC000245764166    0.0700
     56 H56        -6.6512    3.8907   54.2963 H       1  ZINC000245764166    0.0600
     57 H57        -5.0716    3.0643   54.3990 H       1  ZINC000245764166    0.0800
     58 H58        -5.8119    5.2936   52.6854 H       1  ZINC000245764166    0.0800
     59 H59        -4.2307    4.4554   52.7783 H       1  ZINC000245764166    0.0800
@<TRIPOS>BOND
     1     1     2    1
     2     1    30    1
     3     1    31    1
     4     1    32    1
     5     2     3    1
     6     2    10    1
     7     3     4    1
     8     3    33    1
     9     3    34    1
    10     4     9   ar
    11     4     5   ar
    12     5     6   ar
    13     5    35    1
    14     6     7   ar
    15     6    36    1
    16     7     8   ar
    17     7    37    1
    18     8     9   ar
    19     8    38    1
    20     9    39    1
    21    10    11    1
    22    10    40    1
    23    10    41    1
    24    11    12    1
    25    11    13    1
    26    11    14    1
    27    12    42    1
    28    12    43    1
    29    12    44    1
    30    13    45    1
    31    13    46    1
    32    13    47    1
    33    14    15   am
    34    14    48    1
    35    15    16    2
    36    15    17   am
    37    17    18    1
    38    17    49    1
    39    18    19    1
    40    18    28    1
    41    18    20    1
    42    20    21    1
    43    20    50    1
    44    20    51    1
    45    21    22    1
    46    21    52    1
    47    21    53    1
    48    22    23    1
    49    22    54    1
    50    22    55    1
    51    23    24    1
    52    23    28    1
    53    23    25    1
    54    25    26    1
    55    26    27    1
    56    26    56    1
    57    26    57    1
    58    27    28    1
    59    27    58    1
    60    27    59    1
    61    28    29    1
@<TRIPOS>SUBSTRUCTURE
     1 ZINC000245764166        1 TEMP              0 ****  ****    0 ROOT


##########                                Name:    ZINC001023407238
##########                DOCK_Rotatable_Bonds:                   7
##########                         Heavy_Atoms:                  25
##########                    Molecular_Weight:             349.387
##########                DOCK_Rotatable_Bonds:                   7
##########                       Formal_Charge:          -0.0300008
##########                     HBond_Acceptors:                   8
##########                        HBond_Donors:                   2
##########                         Heavy_Atoms:                  25
##########                          Grid_Score:          -29.510242
##########                     Grid_vdw_energy:          -27.675282
##########                      Grid_es_energy:           -1.834960
##########           Internal_energy_repulsive:            8.845537

@<TRIPOS>MOLECULE
ZINC001023407238
 48 50 1 0 0
SMALL
USER_CHARGES


@<TRIPOS>ATOM
      1 C1        -12.1504    1.1860   51.8123 C.3     1  ZINC001023407238   -0.0900
      2 C2        -12.0325    2.2839   50.7868 C.2     1  ZINC001023407238   -0.1100
      3 C3        -11.2888    3.4388   50.9048 C.2     1  ZINC001023407238   -0.0500
      4 C4        -10.4646    3.8256   52.0549 C.2     1  ZINC001023407238    0.6100
      5 O5        -10.9942    4.2047   53.0829 O.2     1  ZINC001023407238   -0.5100
      6 N6         -9.1209    3.7610   51.9731 N.am    1  ZINC001023407238   -0.6100
      7 C7         -8.1791    4.1168   53.0445 C.3     1  ZINC001023407238    0.0800
      8 C8         -6.7555    3.8587   52.5076 C.3     1  ZINC001023407238    0.0900
      9 H9         -6.3177    4.7778   52.1183 H       1  ZINC001023407238    0.0800
     10 O10        -5.9252    3.2970   53.5259 O.3     1  ZINC001023407238   -0.5500
     11 C11        -6.9951    2.8376   51.3642 C.3     1  ZINC001023407238    0.1400
     12 H12        -7.0752    1.8237   51.7562 H       1  ZINC001023407238    0.1200
     13 N13        -5.9391    2.9246   50.3526 N.am    1  ZINC001023407238   -0.7200
     14 C14        -4.8240    2.1777   50.4765 C.2     1  ZINC001023407238    0.5200
     15 O15        -4.6944    1.4346   51.4262 O.2     1  ZINC001023407238   -0.5300
     16 C16        -3.7384    2.2658   49.4349 C.3     1  ZINC001023407238   -0.1300
     17 C17        -2.3929    1.9080   50.0692 C.3     1  ZINC001023407238   -0.1100
     18 H18        -2.4126    0.8953   50.4720 H       1  ZINC001023407238    0.1100
     19 C19        -1.2424    2.0731   49.0503 C.3     1  ZINC001023407238    0.0600
     20 O20        -0.1159    2.5452   49.8469 O.3     1  ZINC001023407238   -0.3500
     21 C21        -0.5613    3.2707   50.8825 C.2     1  ZINC001023407238    0.4800
     22 O22         0.0952    4.0751   51.5006 O.2     1  ZINC001023407238   -0.4600
     23 C23        -2.0123    2.9286   51.1649 C.3     1  ZINC001023407238   -0.1800
     24 C24        -8.3521    3.3162   50.7963 C.3     1  ZINC001023407238    0.1000
     25 N25       -11.4602    4.1626   49.7465 N.pl3   1  ZINC001023407238   -0.4200
     26 C26       -10.8466    5.4596   49.4508 C.3     1  ZINC001023407238    0.0700
     27 C27       -12.2912    3.4756   48.9253 C.2     1  ZINC001023407238    0.0100
     28 C28       -12.6520    2.3205   49.5337 C.2     1  ZINC001023407238   -0.2000
     29 H29       -11.3676    0.4463   51.6443 H       1  ZINC001023407238    0.0600
     30 H30       -12.0423    1.6087   52.8112 H       1  ZINC001023407238    0.0600
     31 H31       -13.1264    0.7088   51.7233 H       1  ZINC001023407238    0.0700
     32 H32        -8.2925    5.1695   53.3033 H       1  ZINC001023407238    0.0800
     33 H33        -8.3630    3.4954   53.9210 H       1  ZINC001023407238    0.0800
     34 H34        -6.4151    2.8656   54.2394 H       1  ZINC001023407238    0.3900
     35 H35        -6.0423    3.5197   49.5936 H       1  ZINC001023407238    0.4100
     36 H36        -3.9548    1.5695   48.6247 H       1  ZINC001023407238    0.1000
     37 H37        -3.6955    3.2808   49.0399 H       1  ZINC001023407238    0.1100
     38 H38        -1.0055    1.1161   48.5854 H       1  ZINC001023407238    0.1200
     39 H39        -1.5081    2.8100   48.2923 H       1  ZINC001023407238    0.0800
     40 H40        -2.6349    3.8196   51.0833 H       1  ZINC001023407238    0.1100
     41 H41        -2.1117    2.4848   52.1555 H       1  ZINC001023407238    0.1200
     42 H42        -8.8635    2.4955   50.2930 H       1  ZINC001023407238    0.0900
     43 H43        -8.2034    4.1496   50.1098 H       1  ZINC001023407238    0.0800
     44 H44        -9.9283    5.3062   48.8838 H       1  ZINC001023407238    0.0800
     45 H45       -11.5389    6.0639   48.8646 H       1  ZINC001023407238    0.0900
     46 H46       -10.6159    5.9736   50.3839 H       1  ZINC001023407238    0.0800
     47 H47       -12.6105    3.7952   47.9444 H       1  ZINC001023407238    0.1700
     48 H48       -13.3076    1.5650   49.1263 H       1  ZINC001023407238    0.1400
@<TRIPOS>BOND
     1     1     2    1
     2     1    29    1
     3     1    30    1
     4     1    31    1
     5     2    28    1
     6     2     3    2
     7     3     4    1
     8     3    25    1
     9     4     5    2
    10     4     6   am
    11     6    24    1
    12     6     7    1
    13     7     8    1
    14     7    32    1
    15     7    33    1
    16     8     9    1
    17     8    10    1
    18     8    11    1
    19    10    34    1
    20    11    12    1
    21    11    13    1
    22    11    24    1
    23    13    14   am
    24    13    35    1
    25    14    15    2
    26    14    16    1
    27    16    17    1
    28    16    36    1
    29    16    37    1
    30    17    18    1
    31    17    23    1
    32    17    19    1
    33    19    20    1
    34    19    38    1
    35    19    39    1
    36    20    21    1
    37    21    22    2
    38    21    23    1
    39    23    40    1
    40    23    41    1
    41    24    42    1
    42    24    43    1
    43    25    26    1
    44    25    27    1
    45    26    44    1
    46    26    45    1
    47    26    46    1
    48    27    28    2
    49    27    47    1
    50    28    48    1
@<TRIPOS>SUBSTRUCTURE
     1 ZINC001023407238        1 TEMP              0 ****  ****    0 ROOT


##########                                Name:    ZINC000002873519
##########                DOCK_Rotatable_Bonds:                   5
##########                         Heavy_Atoms:                  25
##########                    Molecular_Weight:             375.207
##########                DOCK_Rotatable_Bonds:                   5
##########                       Formal_Charge:               -0.02
##########                     HBond_Acceptors:                   6
##########                        HBond_Donors:                   0
##########                         Heavy_Atoms:                  25
##########                          Grid_Score:          -29.442442
##########                     Grid_vdw_energy:          -29.027866
##########                      Grid_es_energy:           -0.414575
##########           Internal_energy_repulsive:           10.148487

@<TRIPOS>MOLECULE
ZINC000002873519
 37 39 1 0 0
SMALL
USER_CHARGES


@<TRIPOS>ATOM
      1 C1         -9.8395    4.1637   50.0585 C.3     1  ZINC000002873519   -0.1500
      2 C2        -10.8839    3.2171   50.5917 C.2     1  ZINC000002873519    0.4500
      3 O3        -11.9024    3.0284   49.9695 O.2     1  ZINC000002873519   -0.4800
      4 O4        -10.6825    2.5830   51.7582 O.3     1  ZINC000002873519   -0.2900
      5 C5         -9.7851    3.1360   52.6132 C.ar    1  ZINC000002873519    0.1200
      6 C6        -10.0443    4.3660   53.1944 C.ar    1  ZINC000002873519   -0.1100
      7 C7         -9.1306    4.9287   54.0655 C.ar    1  ZINC000002873519   -0.0800
      8 C8         -7.9477    4.2700   54.3662 C.ar    1  ZINC000002873519   -0.0400
      9 Cl9        -6.8119    4.9918   55.4628 Cl      1  ZINC000002873519   -0.0500
     10 C10        -7.6698    3.0451   53.7988 C.ar    1  ZINC000002873519   -0.0800
     11 C11        -8.5895    2.4598   52.9179 C.ar    1  ZINC000002873519   -0.0700
     12 C12        -8.3034    1.1592   52.3108 C.2     1  ZINC000002873519    0.0400
     13 C13        -7.0989    0.9465   51.6694 C.2     1  ZINC000002873519   -0.1900
     14 C14        -5.9849    1.8955   51.5006 C.2     1  ZINC000002873519   -0.2000
     15 C15        -5.0266    1.2418   50.8108 C.2     1  ZINC000002873519    0.1200
     16 C16        -3.7295    1.8315   50.4238 C.ar    1  ZINC000002873519   -0.0400
     17 C17        -2.7663    1.0485   49.7833 C.ar    1  ZINC000002873519   -0.0800
     18 C18        -1.5568    1.6053   49.4245 C.ar    1  ZINC000002873519   -0.1100
     19 C19        -1.2959    2.9376   49.6983 C.ar    1  ZINC000002873519   -0.0200
     20 Cl20        0.2292    3.6309   49.2434 Cl      1  ZINC000002873519   -0.0600
     21 C21        -2.2467    3.7193   50.3331 C.ar    1  ZINC000002873519   -0.1100
     22 C22        -3.4627    3.1762   50.6915 C.ar    1  ZINC000002873519   -0.0800
     23 O23        -5.4058   -0.0190   50.5211 O.3     1  ZINC000002873519   -0.2600
     24 C24        -6.6330   -0.2848   51.0034 C.2     1  ZINC000002873519    0.5200
     25 O25        -7.2430   -1.3328   50.9026 O.2     1  ZINC000002873519   -0.4200
     26 H26       -10.0371    5.1692   50.4299 H       1  ZINC000002873519    0.1100
     27 H27        -8.8529    3.8408   50.3908 H       1  ZINC000002873519    0.1000
     28 H28        -9.8732    4.1656   48.9690 H       1  ZINC000002873519    0.1100
     29 H29       -10.9626    4.8868   52.9663 H       1  ZINC000002873519    0.1500
     30 H30        -9.3391    5.8884   54.5149 H       1  ZINC000002873519    0.1500
     31 H31        -6.7473    2.5358   54.0354 H       1  ZINC000002873519    0.1500
     32 H32        -9.0342    0.3657   52.3645 H       1  ZINC000002873519    0.1500
     33 H33        -5.9435    2.9139   51.8577 H       1  ZINC000002873519    0.1700
     34 H34        -2.9683    0.0092   49.5698 H       1  ZINC000002873519    0.1400
     35 H35        -0.8112    1.0009   48.9291 H       1  ZINC000002873519    0.1400
     36 H36        -2.0371    4.7575   50.5442 H       1  ZINC000002873519    0.1400
     37 H37        -4.2033    3.7868   51.1866 H       1  ZINC000002873519    0.1400
@<TRIPOS>BOND
     1     1     2    1
     2     1    26    1
     3     1    27    1
     4     1    28    1
     5     2     3    2
     6     2     4    1
     7     4     5    1
     8     5    11   ar
     9     5     6   ar
    10     6     7   ar
    11     6    29    1
    12     7     8   ar
    13     7    30    1
    14     8     9    1
    15     8    10   ar
    16    10    11   ar
    17    10    31    1
    18    11    12    1
    19    12    13    2
    20    12    32    1
    21    13    24    1
    22    13    14    1
    23    14    15    2
    24    14    33    1
    25    15    16    1
    26    15    23    1
    27    16    22   ar
    28    16    17   ar
    29    17    18   ar
    30    17    34    1
    31    18    19   ar
    32    18    35    1
    33    19    20    1
    34    19    21   ar
    35    21    22   ar
    36    21    36    1
    37    22    37    1
    38    23    24    1
    39    24    25    2
@<TRIPOS>SUBSTRUCTURE
     1 ZINC000002873519        1 TEMP              0 ****  ****    0 ROOT


##########                                Name:    ZINC000469391664
##########                DOCK_Rotatable_Bonds:                   6
##########                         Heavy_Atoms:                  29
##########                    Molecular_Weight:             408.524
##########                DOCK_Rotatable_Bonds:                   6
##########                       Formal_Charge:         -0.00999999
##########                     HBond_Acceptors:                   7
##########                        HBond_Donors:                   0
##########                         Heavy_Atoms:                  29
##########                          Grid_Score:          -29.415791
##########                     Grid_vdw_energy:          -27.438967
##########                      Grid_es_energy:           -1.976823
##########           Internal_energy_repulsive:           25.473974

@<TRIPOS>MOLECULE
ZINC000469391664
 53 56 1 0 0
SMALL
USER_CHARGES


@<TRIPOS>ATOM
      1 C1        -12.6856   -1.1725   59.7562 C.3     1  ZINC000469391664   -0.1500
      2 C2        -11.6443   -0.3504   58.9942 C.3     1  ZINC000469391664   -0.1000
      3 H3        -10.7848   -0.1659   59.6386 H       1  ZINC000469391664    0.0800
      4 C4        -12.2598    0.9852   58.5704 C.3     1  ZINC000469391664   -0.1300
      5 C5        -11.2043    1.8197   57.8381 C.3     1  ZINC000469391664    0.1100
      6 N6        -10.6610    1.0261   56.7273 N.am    1  ZINC000469391664   -0.6100
      7 C7        -10.6533    1.5170   55.4721 C.2     1  ZINC000469391664    0.5600
      8 O8        -11.0986    2.6265   55.2504 O.2     1  ZINC000469391664   -0.5000
      9 C9        -10.1045    0.7082   54.3674 C.ar    1  ZINC000469391664   -0.1100
     10 C10       -10.7154   -0.4947   54.0064 C.ar    1  ZINC000469391664   -0.0900
     11 C11       -10.1980   -1.2456   52.9729 C.ar    1  ZINC000469391664   -0.1000
     12 C12        -9.0731   -0.8137   52.2891 C.ar    1  ZINC000469391664   -0.0900
     13 C13        -8.4579    0.3728   52.6347 C.ar    1  ZINC000469391664   -0.1000
     14 C14        -8.9686    1.1457   53.6690 C.ar    1  ZINC000469391664    0.1500
     15 N15        -8.3501    2.3422   54.0191 N.am    1  ZINC000469391664   -0.5800
     16 C16        -7.5407    2.4193   55.2378 C.3     1  ZINC000469391664    0.0900
     17 C17        -8.4958    3.4302   53.2370 C.2     1  ZINC000469391664    0.6100
     18 O18        -7.9548    4.4766   53.5431 O.2     1  ZINC000469391664   -0.5200
     19 C19        -9.3054    3.3530   52.0181 C.2     1  ZINC000469391664   -0.2600
     20 C20        -8.8361    3.5071   50.7435 C.2     1  ZINC000469391664   -0.0500
     21 C21        -9.8145    3.3849   49.7857 C.2     1  ZINC000469391664   -0.1500
     22 C22       -11.0428    3.1395   50.2568 C.2     1  ZINC000469391664   -0.2600
     23 S23       -11.0346    3.0400   51.9600 S.3     1  ZINC000469391664    0.2300
     24 C24       -10.1261   -0.3125   57.0109 C.3     1  ZINC000469391664    0.1000
     25 C25       -11.1939   -1.1231   57.7523 C.3     1  ZINC000469391664    0.1300
     26 H26       -12.0482   -1.2862   57.0953 H       1  ZINC000469391664    0.1000
     27 N27       -10.6341   -2.4152   58.1565 N.pl3   1  ZINC000469391664   -0.4500
     28 C28        -9.9618   -2.6813   59.3187 C.2     1  ZINC000469391664   -0.0500
     29 C29        -9.6260   -3.9850   59.2848 C.2     1  ZINC000469391664   -0.0300
     30 N30       -10.0807   -4.5008   58.1333 N.2     1  ZINC000469391664   -0.4900
     31 C31       -10.6901   -3.5675   57.4546 C.2     1  ZINC000469391664    0.1800
     32 H32       -12.2473   -2.1236   60.0586 H       1  ZINC000469391664    0.0600
     33 H33       -13.0061   -0.6225   60.6410 H       1  ZINC000469391664    0.0600
     34 H34       -13.5452   -1.3571   59.1119 H       1  ZINC000469391664    0.0600
     35 H35       -13.1041    0.8021   57.9058 H       1  ZINC000469391664    0.0700
     36 H36       -12.6016    1.5248   59.4536 H       1  ZINC000469391664    0.0900
     37 H37       -11.6630    2.7283   57.4480 H       1  ZINC000469391664    0.1000
     38 H38       -10.4015    2.0804   58.5278 H       1  ZINC000469391664    0.0800
     39 H39       -11.5920   -0.8361   54.5367 H       1  ZINC000469391664    0.1400
     40 H40       -10.6716   -2.1754   52.6950 H       1  ZINC000469391664    0.1400
     41 H41        -8.6749   -1.4092   51.4809 H       1  ZINC000469391664    0.1400
     42 H42        -7.5812    0.7024   52.0970 H       1  ZINC000469391664    0.1400
     43 H43        -6.4927    2.2527   54.9891 H       1  ZINC000469391664    0.0600
     44 H44        -7.6550    3.4054   55.6881 H       1  ZINC000469391664    0.0900
     45 H45        -7.8724    1.6573   55.9430 H       1  ZINC000469391664    0.0700
     46 H46        -7.8000    3.7054   50.5120 H       1  ZINC000469391664    0.1500
     47 H47        -9.6071    3.4805   48.7301 H       1  ZINC000469391664    0.1400
     48 H48       -11.9214    3.0166   49.6408 H       1  ZINC000469391664    0.1600
     49 H49        -9.8734   -0.8109   56.0751 H       1  ZINC000469391664    0.1000
     50 H50        -9.2354   -0.2258   57.6332 H       1  ZINC000469391664    0.0800
     51 H51        -9.7425   -1.9803   60.1105 H       1  ZINC000469391664    0.1700
     52 H52        -9.0851   -4.5211   60.0507 H       1  ZINC000469391664    0.1700
     53 H53       -11.1561   -3.6941   56.4885 H       1  ZINC000469391664    0.2000
@<TRIPOS>BOND
     1     1     2    1
     2     1    32    1
     3     1    33    1
     4     1    34    1
     5     2     3    1
     6     2    25    1
     7     2     4    1
     8     4     5    1
     9     4    35    1
    10     4    36    1
    11     5     6    1
    12     5    37    1
    13     5    38    1
    14     6     7   am
    15     6    24    1
    16     7     8    2
    17     7     9    1
    18     9    14   ar
    19     9    10   ar
    20    10    11   ar
    21    10    39    1
    22    11    12   ar
    23    11    40    1
    24    12    13   ar
    25    12    41    1
    26    13    14   ar
    27    13    42    1
    28    14    15    1
    29    15    16    1
    30    15    17   am
    31    16    43    1
    32    16    44    1
    33    16    45    1
    34    17    18    2
    35    17    19    1
    36    19    23    1
    37    19    20    2
    38    20    21    1
    39    20    46    1
    40    21    22    2
    41    21    47    1
    42    22    23    1
    43    22    48    1
    44    24    25    1
    45    24    49    1
    46    24    50    1
    47    25    26    1
    48    25    27    1
    49    27    31    1
    50    27    28    1
    51    28    29    2
    52    28    51    1
    53    29    30    1
    54    29    52    1
    55    30    31    2
    56    31    53    1
@<TRIPOS>SUBSTRUCTURE
     1 ZINC000469391664        1 TEMP              0 ****  ****    0 ROOT


##########                                Name:    ZINC000364058410
##########                DOCK_Rotatable_Bonds:                   5
##########                         Heavy_Atoms:                  25
##########                    Molecular_Weight:             358.464
##########                DOCK_Rotatable_Bonds:                   5
##########                       Formal_Charge:           0.0100002
##########                     HBond_Acceptors:                   7
##########                        HBond_Donors:                   0
##########                         Heavy_Atoms:                  25
##########                          Grid_Score:          -29.407970
##########                     Grid_vdw_energy:          -27.239626
##########                      Grid_es_energy:           -2.168345
##########           Internal_energy_repulsive:           61.249222

@<TRIPOS>MOLECULE
ZINC000364058410
 47 50 1 0 0
SMALL
USER_CHARGES


@<TRIPOS>ATOM
      1 C1        -11.7679   -2.6478   52.3208 C.3     1  ZINC000364058410   -0.0700
      2 C2        -11.7530   -1.2800   52.9534 C.2     1  ZINC000364058410   -0.2500
      3 C3        -10.6884   -0.6861   53.5405 C.2     1  ZINC000364058410    0.0800
      4 N4        -11.0848    0.5266   53.9805 N.pl3   1  ZINC000364058410   -0.3600
      5 C5        -10.2479    1.5065   54.6772 C.3     1  ZINC000364058410    0.1300
      6 C6        -11.0009    2.3129   55.7509 C.3     1  ZINC000364058410    0.1100
      7 N7        -10.5864    1.2551   56.6928 N.am    1  ZINC000364058410   -0.6500
      8 C8        -11.0679    0.7902   57.8626 C.2     1  ZINC000364058410    0.5600
      9 O9        -12.0678    1.2795   58.3440 O.2     1  ZINC000364058410   -0.5000
     10 C10       -10.3641   -0.3376   58.5723 C.3     1  ZINC000364058410    0.1400
     11 H11        -9.3323   -0.3997   58.2262 H       1  ZINC000364058410    0.0900
     12 C12       -10.3846   -0.0858   60.0833 C.3     1  ZINC000364058410   -0.1200
     13 C13        -9.7935   -1.2981   60.8065 C.3     1  ZINC000364058410   -0.1200
     14 C14       -10.6446   -2.5353   60.5113 C.3     1  ZINC000364058410   -0.1400
     15 C15       -10.6269   -2.8148   59.0052 C.3     1  ZINC000364058410    0.1000
     16 N16       -11.0548   -1.6036   58.2915 N.am    1  ZINC000364058410   -0.6000
     17 C17       -12.0649   -1.6524   57.4004 C.2     1  ZINC000364058410    0.5900
     18 O18       -12.4099   -0.6422   56.8159 O.2     1  ZINC000364058410   -0.4900
     19 C19       -12.7478   -2.9220   57.1354 C.2     1  ZINC000364058410   -0.2600
     20 C20       -12.3473   -3.8635   56.2296 C.2     1  ZINC000364058410   -0.0600
     21 C21       -13.1737   -4.9612   56.1851 C.2     1  ZINC000364058410   -0.1400
     22 C22       -14.2153   -4.9221   57.0243 C.2     1  ZINC000364058410   -0.2400
     23 S23       -14.2092   -3.4809   57.9375 S.3     1  ZINC000364058410    0.2100
     24 C24        -9.4327    0.9108   55.8393 C.3     1  ZINC000364058410    0.0900
     25 N25       -12.4378    0.6830   53.6529 N.2     1  ZINC000364058410   -0.3000
     26 C26       -12.8356   -0.3980   53.0320 C.2     1  ZINC000364058410    0.0500
     27 H27       -11.5003   -2.5639   51.2675 H       1  ZINC000364058410    0.0600
     28 H28       -11.0487   -3.2907   52.8283 H       1  ZINC000364058410    0.0600
     29 H29       -12.7656   -3.0781   52.4090 H       1  ZINC000364058410    0.0600
     30 H30        -9.6987   -1.1070   53.6394 H       1  ZINC000364058410    0.1700
     31 H31        -9.6582    2.1214   53.9974 H       1  ZINC000364058410    0.1300
     32 H32       -10.5576    3.2863   55.9607 H       1  ZINC000364058410    0.1100
     33 H33       -12.0779    2.3604   55.5899 H       1  ZINC000364058410    0.0900
     34 H34        -9.7917    0.7995   60.3126 H       1  ZINC000364058410    0.0800
     35 H35       -11.4122    0.0687   60.4123 H       1  ZINC000364058410    0.0800
     36 H36        -8.7744   -1.4670   60.4588 H       1  ZINC000364058410    0.0700
     37 H37        -9.7843   -1.1114   61.8803 H       1  ZINC000364058410    0.0800
     38 H38       -10.2365   -3.3934   61.0454 H       1  ZINC000364058410    0.0800
     39 H39       -11.6696   -2.3577   60.8364 H       1  ZINC000364058410    0.0700
     40 H40        -9.6166   -3.0815   58.6949 H       1  ZINC000364058410    0.0800
     41 H41       -11.3094   -3.6337   58.7776 H       1  ZINC000364058410    0.0900
     42 H42       -11.4692   -3.7558   55.6101 H       1  ZINC000364058410    0.1500
     43 H43       -12.9956   -5.7941   55.5210 H       1  ZINC000364058410    0.1500
     44 H44       -14.9582   -5.7007   57.1145 H       1  ZINC000364058410    0.1700
     45 H45        -9.2575   -0.1613   55.7488 H       1  ZINC000364058410    0.0900
     46 H46        -8.5287    1.4723   56.0751 H       1  ZINC000364058410    0.1100
     47 H47       -13.8301   -0.5806   52.6526 H       1  ZINC000364058410    0.1800
@<TRIPOS>BOND
     1     1     2    1
     2     1    27    1
     3     1    28    1
     4     1    29    1
     5     2    26    1
     6     2     3    2
     7     3     4    1
     8     3    30    1
     9     4     5    1
    10     4    25    1
    11     5    24    1
    12     5     6    1
    13     5    31    1
    14     6     7    1
    15     6    32    1
    16     6    33    1
    17     7     8   am
    18     7    24    1
    19     8     9    2
    20     8    10    1
    21    10    11    1
    22    10    16    1
    23    10    12    1
    24    12    13    1
    25    12    34    1
    26    12    35    1
    27    13    14    1
    28    13    36    1
    29    13    37    1
    30    14    15    1
    31    14    38    1
    32    14    39    1
    33    15    16    1
    34    15    40    1
    35    15    41    1
    36    16    17   am
    37    17    18    2
    38    17    19    1
    39    19    23    1
    40    19    20    2
    41    20    21    1
    42    20    42    1
    43    21    22    2
    44    21    43    1
    45    22    23    1
    46    22    44    1
    47    24    45    1
    48    24    46    1
    49    25    26    2
    50    26    47    1
@<TRIPOS>SUBSTRUCTURE
     1 ZINC000364058410        1 TEMP              0 ****  ****    0 ROOT


##########                                Name:      oleObject5.pdb
##########                DOCK_Rotatable_Bonds:                   5
##########                         Heavy_Atoms:                  24
##########                    Molecular_Weight:             323.438
##########                DOCK_Rotatable_Bonds:                   5
##########                       Formal_Charge:         0.000200074
##########                     HBond_Acceptors:                   4
##########                        HBond_Donors:                   2
##########                         Heavy_Atoms:                  24
##########                          Grid_Score:          -29.348997
##########                     Grid_vdw_energy:          -29.174969
##########                      Grid_es_energy:           -0.174028
##########           Internal_energy_repulsive:           15.616147

@<TRIPOS>MOLECULE
oleObject5.pdb
 49 51 1 0 0
SMALL
NO_CHARGES


@<TRIPOS>ATOM
      1 C          -5.2551    2.0869   49.7660 C.3     1  UNL        -0.0394
      2 C          -6.1499    1.3787   50.7786 C.ar    1  UNL        -0.0456
      3 C          -6.3270   -0.0123   50.6418 C.ar    1  UNL        -0.0590
      4 C          -7.1528   -0.7231   51.5239 C.ar    1  UNL        -0.0620
      5 C          -7.8177   -0.0454   52.5529 C.ar    1  UNL        -0.0619
      6 C          -7.6516    1.3393   52.6980 C.ar    1  UNL        -0.0565
      7 C          -6.8156    2.0683   51.8256 C.ar    1  UNL        -0.0188
      8 C          -6.7026    3.5861   52.0230 C.3     1  UNL         0.0906
      9 N          -7.9977    4.2177   51.7145 N.am    1  UNL        -0.3025
     10 C          -8.7488    3.8925   50.5994 C.2     1  UNL         0.2156
     11 O          -8.4697    2.9447   49.8853 O.2     1  UNL        -0.2774
     12 C         -10.0671    4.6809   50.4822 C.3     1  UNL         0.0382
     13 C         -11.2186    3.9826   51.2541 C.3     1  UNL        -0.0292
     14 C         -11.7239    2.7253   50.5133 C.3     1  UNL        -0.0041
     15 N         -12.1508    3.0628   49.1444 N.4     1  UNL        -0.3167
     16 C         -11.0823    3.6706   48.3315 C.3     1  UNL        -0.0041
     17 C         -10.4939    4.9333   49.0101 C.3     1  UNL        -0.0292
     18 C          -6.1820    3.9433   53.4259 C.ar    1  UNL         0.0681
     19 N          -7.1164    4.2396   54.3619 N.ar    1  UNL        -0.2587
     20 C          -6.7248    4.5515   55.6115 C.ar    1  UNL         0.0272
     21 C          -5.3765    4.5808   55.9966 C.ar    1  UNL        -0.0435
     22 C          -4.3987    4.2713   55.0406 C.ar    1  UNL        -0.0559
     23 C          -4.7975    3.9446   53.7306 C.ar    1  UNL        -0.0272
     24 C          -3.7356    3.5995   52.6941 C.3     1  UNL        -0.0379
     25 H          -4.7228    1.3707   49.1278 H       1  UNL         0.0280
     26 H          -4.4921    2.7026   50.2551 H       1  UNL         0.0280
     27 H          -5.8431    2.7308   49.1031 H       1  UNL         0.0280
     28 H          -5.8248   -0.5489   49.8415 H       1  UNL         0.0626
     29 H          -7.2813   -1.7952   51.4056 H       1  UNL         0.0623
     30 H          -8.4643   -0.5903   53.2348 H       1  UNL         0.0623
     31 H          -8.1858    1.8491   53.4942 H       1  UNL         0.0627
     32 H          -5.9780    3.9944   51.3123 H       1  UNL         0.0624
     33 H          -8.5031    4.5895   52.5080 H       1  UNL         0.1504
     34 H          -9.8852    5.6568   50.9509 H       1  UNL         0.0402
     35 H         -12.0537    4.6864   51.3642 H       1  UNL         0.0288
     36 H         -10.9032    3.7145   52.2701 H       1  UNL         0.0288
     37 H         -12.5650    2.2892   51.0668 H       1  UNL         0.0428
     38 H         -10.9221    1.9762   50.4782 H       1  UNL         0.0428
     39 H         -12.9355    3.7114   49.1958 H       1  UNL         0.1222
     40 H         -11.4781    3.9404   47.3444 H       1  UNL         0.0428
     41 H         -10.2846    2.9341   48.1735 H       1  UNL         0.0428
     42 H         -11.2570    5.7223   48.9953 H       1  UNL         0.0288
     43 H          -9.6436    5.3105   48.4273 H       1  UNL         0.0288
     44 H          -7.5153    4.7842   56.3239 H       1  UNL         0.0840
     45 H          -5.0967    4.8362   57.0142 H       1  UNL         0.0639
     46 H          -3.3476    4.2840   55.3152 H       1  UNL         0.0627
     47 H          -2.7248    3.6539   53.1175 H       1  UNL         0.0280
     48 H          -3.7704    4.2938   51.8457 H       1  UNL         0.0280
     49 H          -3.8733    2.5806   52.3125 H       1  UNL         0.0280
@<TRIPOS>BOND
     1     1     2    1
     2     1    25    1
     3     1    26    1
     4     1    27    1
     5     2     3   ar
     6     2     7   ar
     7     3     4   ar
     8     3    28    1
     9     4     5   ar
    10     4    29    1
    11     5     6   ar
    12     5    30    1
    13     6     7   ar
    14     6    31    1
    15     7     8    1
    16     8     9    1
    17     8    18    1
    18     8    32    1
    19     9    10   am
    20     9    33    1
    21    10    11    2
    22    10    12    1
    23    12    13    1
    24    12    17    1
    25    12    34    1
    26    13    14    1
    27    13    35    1
    28    13    36    1
    29    14    15    1
    30    14    37    1
    31    14    38    1
    32    15    16    1
    33    15    39    1
    34    16    17    1
    35    16    40    1
    36    16    41    1
    37    17    42    1
    38    17    43    1
    39    18    19   ar
    40    18    23   ar
    41    19    20   ar
    42    20    21   ar
    43    20    44    1
    44    21    22   ar
    45    21    45    1
    46    22    23   ar
    47    22    46    1
    48    23    24    1
    49    24    47    1
    50    24    48    1
    51    24    49    1
@<TRIPOS>SUBSTRUCTURE
     1 UNL         1 TEMP              0 ****  ****    0 ROOT


##########                                Name:    ZINC001708427409
##########                DOCK_Rotatable_Bonds:                   6
##########                         Heavy_Atoms:                  24
##########                    Molecular_Weight:             334.505
##########                DOCK_Rotatable_Bonds:                   6
##########                       Formal_Charge:          -0.0200006
##########                     HBond_Acceptors:                   5
##########                        HBond_Donors:                   1
##########                         Heavy_Atoms:                  24
##########                          Grid_Score:          -29.253580
##########                     Grid_vdw_energy:          -27.676077
##########                      Grid_es_energy:           -1.577503
##########           Internal_energy_repulsive:           19.570293

@<TRIPOS>MOLECULE
ZINC001708427409
 58 60 1 0 0
SMALL
USER_CHARGES


@<TRIPOS>ATOM
      1 C1        -14.2384   -1.1044   53.1327 C.3     1  ZINC001708427409   -0.1500
      2 C2        -13.2644   -2.2207   52.7507 C.3     1  ZINC001708427409   -0.1200
      3 C3        -11.8346   -1.7830   53.0748 C.3     1  ZINC001708427409    0.0000
      4 H4        -11.7213   -0.7211   52.8564 H       1  ZINC001708427409    0.0800
      5 C5        -10.8498   -2.5867   52.2232 C.3     1  ZINC001708427409   -0.1400
      6 C6        -11.5529   -2.0284   54.5347 C.2     1  ZINC001708427409    0.1800
      7 N7        -11.3659   -3.1869   55.1011 N.2     1  ZINC001708427409   -0.2800
      8 N8        -11.1499   -3.0329   56.3587 N.2     1  ZINC001708427409   -0.3200
      9 C9        -11.1879   -1.7575   56.6647 C.2     1  ZINC001708427409    0.3600
     10 N10       -11.0009   -1.2061   57.9223 N.3     1  ZINC001708427409   -0.4200
     11 C11        -9.7158   -1.6636   58.5199 C.3     1  ZINC001708427409    0.0400
     12 C12        -9.8973   -1.4684   60.0412 C.3     1  ZINC001708427409   -0.0900
     13 H13        -9.4500   -0.5264   60.3582 H       1  ZINC001708427409    0.0900
     14 C14        -9.2713   -2.6368   60.8054 C.3     1  ZINC001708427409   -0.1500
     15 C15       -11.4333   -1.4376   60.2624 C.3     1  ZINC001708427409   -0.0800
     16 H16       -11.7435   -2.2043   60.9722 H       1  ZINC001708427409    0.0900
     17 C17       -11.7861   -0.0411   60.7751 C.3     1  ZINC001708427409   -0.1100
     18 C18       -13.2996    0.1640   60.7162 C.3     1  ZINC001708427409   -0.1200
     19 C19       -13.7332    0.1502   59.2520 C.3     1  ZINC001708427409   -0.1100
     20 C20       -13.3903   -1.1762   58.6047 C.3     1  ZINC001708427409   -0.1000
     21 C21       -12.0138   -1.7068   58.8765 C.3     1  ZINC001708427409    0.1000
     22 H22       -12.0552   -2.7880   58.7446 H       1  ZINC001708427409    0.0600
     23 N23       -11.4402   -1.0762   55.5097 N.pl3   1  ZINC001708427409   -0.4700
     24 C24       -11.5729    0.3740   55.3491 C.3     1  ZINC001708427409    0.0800
     25 C25       -10.1839    1.0015   55.2164 C.3     1  ZINC001708427409    0.1200
     26 C26        -9.5392    0.5411   53.9074 C.3     1  ZINC001708427409   -0.1800
     27 C27       -10.3112    2.5261   55.2135 C.3     1  ZINC001708427409   -0.1500
     28 O28        -9.3696    0.5936   56.3177 O.3     1  ZINC001708427409   -0.5400
     29 H29       -13.9976   -0.2033   52.5689 H       1  ZINC001708427409    0.0600
     30 H30       -15.2571   -1.4162   52.9018 H       1  ZINC001708427409    0.0600
     31 H31       -14.1546   -0.8986   54.1998 H       1  ZINC001708427409    0.0500
     32 H32       -13.5051   -3.1219   53.3145 H       1  ZINC001708427409    0.0700
     33 H33       -13.3482   -2.4265   51.6836 H       1  ZINC001708427409    0.0800
     34 H34       -11.0535   -2.4092   51.1673 H       1  ZINC001708427409    0.0700
     35 H35        -9.8312   -2.2748   52.4542 H       1  ZINC001708427409    0.0500
     36 H36       -10.9630   -3.6486   52.4417 H       1  ZINC001708427409    0.0700
     37 H37        -9.5432   -2.7150   58.2901 H       1  ZINC001708427409    0.0600
     38 H38        -8.8891   -1.0539   58.1551 H       1  ZINC001708427409    0.0800
     39 H39        -8.2018   -2.6749   60.5986 H       1  ZINC001708427409    0.0600
     40 H40        -9.4299   -2.4980   61.8748 H       1  ZINC001708427409    0.0600
     41 H41        -9.7363   -3.5698   60.4872 H       1  ZINC001708427409    0.0600
     42 H42       -11.4461    0.0633   61.8056 H       1  ZINC001708427409    0.0600
     43 H43       -11.2944    0.7080   60.1545 H       1  ZINC001708427409    0.0700
     44 H44       -13.7995   -0.6416   61.2538 H       1  ZINC001708427409    0.0600
     45 H45       -13.5570    1.1232   61.1654 H       1  ZINC001708427409    0.0600
     46 H46       -14.8098    0.3099   59.1948 H       1  ZINC001708427409    0.0600
     47 H47       -13.2229    0.9524   58.7188 H       1  ZINC001708427409    0.0600
     48 H48       -14.1064   -1.9208   58.9523 H       1  ZINC001708427409    0.0600
     49 H49       -13.5110   -1.0710   57.5266 H       1  ZINC001708427409    0.0700
     50 H50       -12.1557    0.5886   54.4533 H       1  ZINC001708427409    0.0900
     51 H51       -12.0784    0.7912   56.2201 H       1  ZINC001708427409    0.1000
     52 H52       -10.1603    0.8523   53.0674 H       1  ZINC001708427409    0.0700
     53 H53        -8.5495    0.9882   53.8129 H       1  ZINC001708427409    0.0700
     54 H54        -9.4485   -0.5451   53.9094 H       1  ZINC001708427409    0.0600
     55 H55       -10.8445    2.8480   56.1081 H       1  ZINC001708427409    0.0700
     56 H56        -9.3174    2.9738   55.2022 H       1  ZINC001708427409    0.0700
     57 H57       -10.8625    2.8431   54.3282 H       1  ZINC001708427409    0.0700
     58 H58        -8.5620    1.1148   56.4239 H       1  ZINC001708427409    0.3800
@<TRIPOS>BOND
     1     1     2    1
     2     1    29    1
     3     1    30    1
     4     1    31    1
     5     2     3    1
     6     2    32    1
     7     2    33    1
     8     3     4    1
     9     3     5    1
    10     3     6    1
    11     5    34    1
    12     5    35    1
    13     5    36    1
    14     6    23    1
    15     6     7    2
    16     7     8    1
    17     8     9    2
    18     9    10    1
    19     9    23    1
    20    10    21    1
    21    10    11    1
    22    11    12    1
    23    11    37    1
    24    11    38    1
    25    12    13    1
    26    12    14    1
    27    12    15    1
    28    14    39    1
    29    14    40    1
    30    14    41    1
    31    15    16    1
    32    15    21    1
    33    15    17    1
    34    17    18    1
    35    17    42    1
    36    17    43    1
    37    18    19    1
    38    18    44    1
    39    18    45    1
    40    19    20    1
    41    19    46    1
    42    19    47    1
    43    20    21    1
    44    20    48    1
    45    20    49    1
    46    21    22    1
    47    23    24    1
    48    24    25    1
    49    24    50    1
    50    24    51    1
    51    25    26    1
    52    25    27    1
    53    25    28    1
    54    26    52    1
    55    26    53    1
    56    26    54    1
    57    27    55    1
    58    27    56    1
    59    27    57    1
    60    28    58    1
@<TRIPOS>SUBSTRUCTURE
     1 ZINC001708427409        1 TEMP              0 ****  ****    0 ROOT


##########                                Name:    ZINC000566738344
##########                DOCK_Rotatable_Bonds:                   5
##########                         Heavy_Atoms:                  23
##########                    Molecular_Weight:             352.478
##########                DOCK_Rotatable_Bonds:                   5
##########                       Formal_Charge:           0.0100005
##########                     HBond_Acceptors:                   7
##########                        HBond_Donors:                   0
##########                         Heavy_Atoms:                  23
##########                          Grid_Score:          -29.251911
##########                     Grid_vdw_energy:          -28.447834
##########                      Grid_es_energy:           -0.804078
##########           Internal_energy_repulsive:           21.407705

@<TRIPOS>MOLECULE
ZINC000566738344
 43 44 1 0 0
SMALL
USER_CHARGES


@<TRIPOS>ATOM
      1 C1        -13.4199   -4.3616   56.1522 C.3     1  ZINC000566738344   -0.1300
      2 C2        -12.4694   -3.2539   56.5267 C.ar    1  ZINC000566738344   -0.0100
      3 C3        -11.7211   -3.3481   57.6775 C.ar    1  ZINC000566738344   -0.1000
      4 C4        -10.8428   -2.3245   58.0245 C.ar    1  ZINC000566738344   -0.0500
      5 S5         -9.8869   -2.4487   59.4995 S.3     1  ZINC000566738344   -0.0300
      6 C6        -10.2768   -0.9055   60.3697 C.3     1  ZINC000566738344   -0.1200
      7 H7        -10.0915   -0.0588   59.7088 H       1  ZINC000566738344    0.1200
      8 C8        -11.7486   -0.9136   60.7877 C.3     1  ZINC000566738344   -0.1300
      9 C9         -9.4073   -0.7862   61.5948 C.2     1  ZINC000566738344    0.5200
     10 O10        -8.8313   -1.7621   62.0270 O.2     1  ZINC000566738344   -0.5000
     11 N11        -9.2699    0.4049   62.2102 N.am    1  ZINC000566738344   -0.6000
     12 C12        -9.9671    1.5833   61.6893 C.3     1  ZINC000566738344    0.0600
     13 C13        -8.4233    0.5213   63.4001 C.3     1  ZINC000566738344    0.1500
     14 H14        -7.4172    0.1707   63.1697 H       1  ZINC000566738344    0.1300
     15 C15        -8.3678    1.9907   63.8539 C.3     1  ZINC000566738344   -0.1300
     16 C16        -7.7482    1.9928   65.2752 C.3     1  ZINC000566738344   -0.5900
     17 S17        -8.5830    0.5713   66.0764 S.o2    1  ZINC000566738344    2.4000
     18 O18        -7.6283   -0.1827   66.8105 O.2     1  ZINC000566738344   -0.9300
     19 O19        -9.7710    1.0209   66.7133 O.2     1  ZINC000566738344   -0.9300
     20 C20        -9.0175   -0.3244   64.5439 C.3     1  ZINC000566738344   -0.6200
     21 C21       -10.7182   -1.2033   57.2083 C.ar    1  ZINC000566738344   -0.1400
     22 C22       -11.4637   -1.1031   56.0559 C.ar    1  ZINC000566738344   -0.0400
     23 C23       -12.3425   -2.1315   55.7019 C.ar    1  ZINC000566738344   -0.0400
     24 C24       -13.1197   -2.0303   54.5034 C.1     1  ZINC000566738344    0.2500
     25 N25       -13.7364   -1.9501   53.5526 N.1     1  ZINC000566738344   -0.4100
     26 H26       -12.8977   -5.0971   55.5402 H       1  ZINC000566738344    0.0800
     27 H27       -13.7933   -4.8413   57.0569 H       1  ZINC000566738344    0.0800
     28 H28       -14.2561   -3.9479   55.5886 H       1  ZINC000566738344    0.0700
     29 H29       -11.8154   -4.2165   58.3126 H       1  ZINC000566738344    0.1400
     30 H30       -11.9147   -1.7061   61.5174 H       1  ZINC000566738344    0.0800
     31 H31       -12.0056    0.0484   61.2313 H       1  ZINC000566738344    0.0800
     32 H32       -12.3739   -1.0887   59.9124 H       1  ZINC000566738344    0.0900
     33 H33       -10.9489    1.6608   62.1566 H       1  ZINC000566738344    0.0700
     34 H34        -9.3863    2.4779   61.9138 H       1  ZINC000566738344    0.0800
     35 H35       -10.0850    1.4881   60.6099 H       1  ZINC000566738344    0.0800
     36 H36        -7.7424    2.5683   63.1732 H       1  ZINC000566738344    0.1100
     37 H37        -9.3734    2.4101   63.8844 H       1  ZINC000566738344    0.0900
     38 H38        -6.6711    1.8325   65.2279 H       1  ZINC000566738344    0.1400
     39 H39        -7.9797    2.9216   65.7967 H       1  ZINC000566738344    0.1400
     40 H40       -10.1003   -0.3953   64.4410 H       1  ZINC000566738344    0.1400
     41 H41        -8.5708   -1.3187   64.5471 H       1  ZINC000566738344    0.1500
     42 H42       -10.0359   -0.4114   57.4800 H       1  ZINC000566738344    0.1200
     43 H43       -11.3669   -0.2331   55.4234 H       1  ZINC000566738344    0.1400
@<TRIPOS>BOND
     1     1     2    1
     2     1    26    1
     3     1    27    1
     4     1    28    1
     5     2    23   ar
     6     2     3   ar
     7     3     4   ar
     8     3    29    1
     9     4     5    1
    10     4    21   ar
    11     5     6    1
    12     6     7    1
    13     6     8    1
    14     6     9    1
    15     8    30    1
    16     8    31    1
    17     8    32    1
    18     9    10    2
    19     9    11   am
    20    11    12    1
    21    11    13    1
    22    12    33    1
    23    12    34    1
    24    12    35    1
    25    13    14    1
    26    13    20    1
    27    13    15    1
    28    15    16    1
    29    15    36    1
    30    15    37    1
    31    16    17    1
    32    16    38    1
    33    16    39    1
    34    17    18    2
    35    17    19    2
    36    17    20    1
    37    20    40    1
    38    20    41    1
    39    21    22   ar
    40    21    42    1
    41    22    23   ar
    42    22    43    1
    43    23    24    1
    44    24    25    3
@<TRIPOS>SUBSTRUCTURE
     1 ZINC000566738344        1 TEMP              0 ****  ****    0 ROOT


##########                                Name:    ZINC000001174632
##########                DOCK_Rotatable_Bonds:                   6
##########                         Heavy_Atoms:                  29
##########                    Molecular_Weight:             385.419
##########                DOCK_Rotatable_Bonds:                   6
##########                       Formal_Charge:           0.0400005
##########                     HBond_Acceptors:                   5
##########                        HBond_Donors:                   1
##########                         Heavy_Atoms:                  29
##########                          Grid_Score:          -29.249142
##########                     Grid_vdw_energy:          -27.509047
##########                      Grid_es_energy:           -1.740096
##########           Internal_energy_repulsive:           18.930307

@<TRIPOS>MOLECULE
ZINC000001174632
 48 51 1 0 0
SMALL
USER_CHARGES


@<TRIPOS>ATOM
      1 C1         -9.0870   -3.4418   59.6055 C.3     1  ZINC000001174632    0.0400
      2 O2         -9.9797   -3.1141   58.5084 O.3     1  ZINC000001174632   -0.3500
      3 C3        -10.6956   -4.1258   57.9790 C.2     1  ZINC000001174632    0.5200
      4 O4        -10.4732   -5.2708   58.3200 O.2     1  ZINC000001174632   -0.5200
      5 C5        -11.7478   -3.8435   56.9868 C.ar    1  ZINC000001174632   -0.2000
      6 C6        -12.6750   -4.8310   56.6451 C.ar    1  ZINC000001174632   -0.0200
      7 C7        -13.6570   -4.5602   55.7166 C.ar    1  ZINC000001174632   -0.1800
      8 C8        -13.7308   -3.3124   55.1187 C.ar    1  ZINC000001174632   -0.0300
      9 C9        -12.8221   -2.3261   55.4450 C.ar    1  ZINC000001174632   -0.1900
     10 C10       -11.8285   -2.5778   56.3829 C.ar    1  ZINC000001174632    0.2600
     11 N11       -10.9133   -1.5870   56.7133 N.pl3   1  ZINC000001174632   -0.6500
     12 C12       -11.3541   -0.3655   57.1532 C.2     1  ZINC000001174632    0.2300
     13 C13       -11.1366    0.8409   56.5158 C.2     1  ZINC000001174632   -0.1800
     14 C14       -10.3929    1.0307   55.2506 C.ar    1  ZINC000001174632   -0.0600
     15 C15        -8.9987    0.9671   55.2424 C.ar    1  ZINC000001174632   -0.0600
     16 C16        -8.3092    1.1445   54.0611 C.ar    1  ZINC000001174632   -0.1500
     17 C17        -9.0000    1.3865   52.8817 C.ar    1  ZINC000001174632    0.1400
     18 O18        -8.3166    1.5608   51.7194 O.3     1  ZINC000001174632   -0.3200
     19 C19        -6.8918    1.4720   51.7851 C.3     1  ZINC000001174632    0.0300
     20 C20       -10.3867    1.4504   52.8857 C.ar    1  ZINC000001174632   -0.2100
     21 C21       -11.0839    1.2680   54.0615 C.ar    1  ZINC000001174632   -0.0500
     22 C22       -11.7702    1.9025   57.3081 C.2     1  ZINC000001174632    0.4500
     23 O23       -11.7808    3.0899   57.0487 O.2     1  ZINC000001174632   -0.4100
     24 C24       -12.3976    1.2484   58.4895 C.ar    1  ZINC000001174632   -0.1600
     25 C25       -13.1198    1.7399   59.5606 C.ar    1  ZINC000001174632   -0.0500
     26 C26       -13.5912    0.8684   60.5374 C.ar    1  ZINC000001174632   -0.1100
     27 C27       -13.3402   -0.4832   60.4409 C.ar    1  ZINC000001174632   -0.0900
     28 C28       -12.6151   -0.9885   59.3683 C.ar    1  ZINC000001174632   -0.0800
     29 C29       -12.1451   -0.1308   58.3846 C.ar    1  ZINC000001174632   -0.0600
     30 H30        -8.3537   -4.1754   59.2706 H       1  ZINC000001174632    0.0700
     31 H31        -8.5729   -2.5398   59.9375 H       1  ZINC000001174632    0.1100
     32 H32        -9.6641   -3.8561   60.4322 H       1  ZINC000001174632    0.0700
     33 H33       -12.6221   -5.8054   57.1076 H       1  ZINC000001174632    0.1400
     34 H34       -14.3727   -5.3251   55.4534 H       1  ZINC000001174632    0.1300
     35 H35       -14.5041   -3.1104   54.3924 H       1  ZINC000001174632    0.1300
     36 H36       -12.8860   -1.3564   54.9739 H       1  ZINC000001174632    0.1300
     37 H37        -9.9621   -1.7592   56.6330 H       1  ZINC000001174632    0.4300
     38 H38        -8.4605    0.7795   56.1597 H       1  ZINC000001174632    0.1300
     39 H39        -7.2304    1.0954   54.0539 H       1  ZINC000001174632    0.1300
     40 H40        -6.5113    2.2335   52.4657 H       1  ZINC000001174632    0.0600
     41 H41        -6.6058    0.4846   52.1478 H       1  ZINC000001174632    0.0600
     42 H42        -6.4719    1.6298   50.7917 H       1  ZINC000001174632    0.1000
     43 H43       -10.9204    1.6393   51.9660 H       1  ZINC000001174632    0.1300
     44 H44       -12.1628    1.3175   54.0637 H       1  ZINC000001174632    0.1300
     45 H45       -13.3176    2.7987   59.6394 H       1  ZINC000001174632    0.1400
     46 H46       -14.1555    1.2524   61.3744 H       1  ZINC000001174632    0.1400
     47 H47       -13.7086   -1.1535   61.2034 H       1  ZINC000001174632    0.1400
     48 H48       -12.4216   -2.0487   59.2982 H       1  ZINC000001174632    0.1300
@<TRIPOS>BOND
     1     1     2    1
     2     1    30    1
     3     1    31    1
     4     1    32    1
     5     2     3    1
     6     3     4    2
     7     3     5    1
     8     5    10   ar
     9     5     6   ar
    10     6     7   ar
    11     6    33    1
    12     7     8   ar
    13     7    34    1
    14     8     9   ar
    15     8    35    1
    16     9    10   ar
    17     9    36    1
    18    10    11    1
    19    11    12    1
    20    11    37    1
    21    12    29    1
    22    12    13    2
    23    13    14    1
    24    13    22    1
    25    14    21   ar
    26    14    15   ar
    27    15    16   ar
    28    15    38    1
    29    16    17   ar
    30    16    39    1
    31    17    18    1
    32    17    20   ar
    33    18    19    1
    34    19    40    1
    35    19    41    1
    36    19    42    1
    37    20    21   ar
    38    20    43    1
    39    21    44    1
    40    22    23    2
    41    22    24    1
    42    24    29   ar
    43    24    25   ar
    44    25    26   ar
    45    25    45    1
    46    26    27   ar
    47    26    46    1
    48    27    28   ar
    49    27    47    1
    50    28    29   ar
    51    28    48    1
@<TRIPOS>SUBSTRUCTURE
     1 ZINC000001174632        1 TEMP              0 ****  ****    0 ROOT


##########                                Name:    ZINC000176150038
##########                DOCK_Rotatable_Bonds:                   4
##########                         Heavy_Atoms:                  23
##########                    Molecular_Weight:             333.712
##########                DOCK_Rotatable_Bonds:                   4
##########                       Formal_Charge:        -2.23517e-07
##########                     HBond_Acceptors:                  10
##########                        HBond_Donors:                   1
##########                         Heavy_Atoms:                  23
##########                          Grid_Score:          -29.242043
##########                     Grid_vdw_energy:          -27.650192
##########                      Grid_es_energy:           -1.591850
##########           Internal_energy_repulsive:            5.109214

@<TRIPOS>MOLECULE
ZINC000176150038
 32 34 1 0 0
SMALL
USER_CHARGES


@<TRIPOS>ATOM
      1 C1        -11.7071   -0.0627   54.1606 C.3     1  ZINC000176150038   -0.0900
      2 C2        -11.3991   -1.4001   53.5380 C.2     1  ZINC000176150038    0.2600
      3 N3        -10.7724   -1.6035   52.4087 N.2     1  ZINC000176150038   -0.3300
      4 N4        -10.6740   -2.8607   52.1656 N.2     1  ZINC000176150038   -0.0300
      5 N5        -11.2248   -3.5417   53.1120 N.2     1  ZINC000176150038   -0.0700
      6 N6        -11.7142   -2.6113   54.0456 N.pl3   1  ZINC000176150038   -0.3300
      7 C7        -12.3917   -2.8827   55.2440 C.ar    1  ZINC000176150038    0.1400
      8 C8        -13.6607   -3.4445   55.2122 C.ar    1  ZINC000176150038   -0.1000
      9 C9        -14.3296   -3.7129   56.3915 C.ar    1  ZINC000176150038   -0.1100
     10 C10       -13.7369   -3.4228   57.6068 C.ar    1  ZINC000176150038    0.1000
     11 F11       -14.3928   -3.6867   58.7581 F       1  ZINC000176150038   -0.1200
     12 C12       -12.4650   -2.8596   57.6441 C.ar    1  ZINC000176150038    0.1300
     13 N13       -11.8647   -2.5657   58.8736 N.am    1  ZINC000176150038   -0.6500
     14 C14       -11.6565   -1.2835   59.2323 C.2     1  ZINC000176150038    0.5700
     15 O15       -11.9903   -0.3825   58.4884 O.2     1  ZINC000176150038   -0.4800
     16 C16       -11.0202   -0.9719   60.5354 C.ar    1  ZINC000176150038    0.1400
     17 N17       -11.6818   -0.2863   61.4651 N.ar    1  ZINC000176150038   -0.4800
     18 C18       -11.1211   -0.0084   62.6222 C.ar    1  ZINC000176150038    0.3000
     19 N19        -9.8927   -0.3908   62.9126 N.ar    1  ZINC000176150038   -0.4800
     20 C20        -9.1683   -1.0754   62.0445 C.ar    1  ZINC000176150038    0.1700
     21 C21        -9.7185   -1.3980   60.8103 C.ar    1  ZINC000176150038   -0.1000
     22 Cl22       -8.8081   -2.2959   59.6361 Cl      1  ZINC000176150038    0.0100
     23 C23       -11.7911   -2.5948   56.4612 C.ar    1  ZINC000176150038   -0.0800
     24 H24       -10.8826    0.2347   54.8087 H       1  ZINC000176150038    0.1100
     25 H25       -11.8389    0.6818   53.3755 H       1  ZINC000176150038    0.1100
     26 H26       -12.6222   -0.1375   54.7479 H       1  ZINC000176150038    0.0900
     27 H27       -14.1262   -3.6717   54.2645 H       1  ZINC000176150038    0.1500
     28 H28       -15.3169   -4.1497   56.3639 H       1  ZINC000176150038    0.1600
     29 H29       -11.5984   -3.2850   59.4674 H       1  ZINC000176150038    0.4300
     30 H30       -11.6834    0.5499   63.3561 H       1  ZINC000176150038    0.2200
     31 H31        -8.1634   -1.3834   62.2929 H       1  ZINC000176150038    0.1900
     32 H32       -10.8038   -2.1577   56.4872 H       1  ZINC000176150038    0.1700
@<TRIPOS>BOND
     1     1     2    1
     2     1    24    1
     3     1    25    1
     4     1    26    1
     5     2     6    1
     6     2     3    2
     7     3     4    1
     8     4     5    2
     9     5     6    1
    10     6     7    1
    11     7    23   ar
    12     7     8   ar
    13     8     9   ar
    14     8    27    1
    15     9    10   ar
    16     9    28    1
    17    10    11    1
    18    10    12   ar
    19    12    13    1
    20    12    23   ar
    21    13    14   am
    22    13    29    1
    23    14    15    2
    24    14    16    1
    25    16    21   ar
    26    16    17   ar
    27    17    18   ar
    28    18    19   ar
    29    18    30    1
    30    19    20   ar
    31    20    21   ar
    32    20    31    1
    33    21    22    1
    34    23    32    1
@<TRIPOS>SUBSTRUCTURE
     1 ZINC000176150038        1 TEMP              0 ****  ****    0 ROOT


##########                                Name:    ZINC001135312623
##########                DOCK_Rotatable_Bonds:                   3
##########                         Heavy_Atoms:                  25
##########                    Molecular_Weight:             341.323
##########                DOCK_Rotatable_Bonds:                   3
##########                       Formal_Charge:        -1.78814e-07
##########                     HBond_Acceptors:                   8
##########                        HBond_Donors:                   2
##########                         Heavy_Atoms:                  25
##########                          Grid_Score:          -29.235054
##########                     Grid_vdw_energy:          -27.907919
##########                      Grid_es_energy:           -1.327136
##########           Internal_energy_repulsive:            4.984487

@<TRIPOS>MOLECULE
ZINC001135312623
 40 42 1 0 0
SMALL
USER_CHARGES


@<TRIPOS>ATOM
      1 C1         -8.2788    3.5934   54.4036 C.3     1  ZINC001135312623   -0.1300
      2 C2         -7.7126    2.6076   53.4144 C.ar    1  ZINC001135312623   -0.0600
      3 C3         -6.7685    3.0171   52.4938 C.ar    1  ZINC001135312623   -0.1000
      4 C4         -6.2487    2.1131   51.5852 C.ar    1  ZINC001135312623   -0.0300
      5 C5         -5.2184    2.5635   50.5818 C.3     1  ZINC001135312623   -0.1300
      6 C6         -6.6718    0.7968   51.5959 C.ar    1  ZINC001135312623   -0.0200
      7 N7         -6.1128   -0.1673   50.6218 N.pl3   1  ZINC001135312623    0.0200
      8 O8         -6.8195   -1.0454   50.1600 O.2     1  ZINC001135312623   -0.1500
      9 O9         -4.9463   -0.0827   50.2819 O.2     1  ZINC001135312623   -0.1500
     10 C10        -7.6152    0.3805   52.5148 C.ar    1  ZINC001135312623   -0.0700
     11 C11        -8.1357    1.2845   53.4316 C.ar    1  ZINC001135312623    0.1500
     12 N12        -9.0909    0.8663   54.3633 N.am    1  ZINC001135312623   -0.6600
     13 C13       -10.2419    0.3051   53.9428 C.2     1  ZINC001135312623    0.5600
     14 O14       -10.4497    0.1624   52.7532 O.2     1  ZINC001135312623   -0.5000
     15 C15       -11.2499   -0.1361   54.9259 C.ar    1  ZINC001135312623   -0.1600
     16 C16       -12.1473    0.7864   55.4704 C.ar    1  ZINC001135312623   -0.0400
     17 C17       -13.0878    0.3740   56.3887 C.ar    1  ZINC001135312623   -0.1500
     18 C18       -13.1432   -0.9598   56.7724 C.ar    1  ZINC001135312623    0.2000
     19 N19       -14.0854   -1.3980   57.7032 N.am    1  ZINC001135312623   -0.6700
     20 C20       -13.9297   -2.5989   58.2957 C.2     1  ZINC001135312623    0.6600
     21 O21       -14.7641   -2.9900   59.0877 O.2     1  ZINC001135312623   -0.4900
     22 O22       -12.8622   -3.3697   58.0205 O.3     1  ZINC001135312623   -0.3400
     23 C23       -12.3377   -3.3238   56.6652 C.3     1  ZINC001135312623    0.1100
     24 C24       -12.2502   -1.8824   56.2295 C.ar    1  ZINC001135312623   -0.1800
     25 C25       -11.3126   -1.4798   55.3102 C.ar    1  ZINC001135312623    0.0000
     26 H26        -7.6637    3.5993   55.3034 H       1  ZINC001135312623    0.0900
     27 H27        -8.2848    4.5896   53.9610 H       1  ZINC001135312623    0.0800
     28 H28        -9.2976    3.3045   54.6619 H       1  ZINC001135312623    0.0700
     29 H29        -6.4359    4.0445   52.4828 H       1  ZINC001135312623    0.1500
     30 H30        -4.2272    2.5163   51.0326 H       1  ZINC001135312623    0.0900
     31 H31        -5.2521    1.9116   49.7089 H       1  ZINC001135312623    0.0800
     32 H32        -5.4310    3.5885   50.2781 H       1  ZINC001135312623    0.0800
     33 H33        -7.9453   -0.6478   52.5226 H       1  ZINC001135312623    0.1700
     34 H34        -8.9253    0.9802   55.3123 H       1  ZINC001135312623    0.4200
     35 H35       -12.1034    1.8234   55.1713 H       1  ZINC001135312623    0.1400
     36 H36       -13.7809    1.0869   56.8101 H       1  ZINC001135312623    0.1500
     37 H37       -14.8486   -0.8413   57.9231 H       1  ZINC001135312623    0.4300
     38 H38       -11.3451   -3.7738   56.6417 H       1  ZINC001135312623    0.1300
     39 H39       -13.0044   -3.8682   55.9963 H       1  ZINC001135312623    0.1000
     40 H40       -10.6239   -2.1970   54.8885 H       1  ZINC001135312623    0.1500
@<TRIPOS>BOND
     1     1     2    1
     2     1    26    1
     3     1    27    1
     4     1    28    1
     5     2    11   ar
     6     2     3   ar
     7     3     4   ar
     8     3    29    1
     9     4     5    1
    10     4     6   ar
    11     5    30    1
    12     5    31    1
    13     5    32    1
    14     6     7    1
    15     6    10   ar
    16     7     8    2
    17     7     9    2
    18    10    11   ar
    19    10    33    1
    20    11    12    1
    21    12    13   am
    22    12    34    1
    23    13    14    2
    24    13    15    1
    25    15    25   ar
    26    15    16   ar
    27    16    17   ar
    28    16    35    1
    29    17    18   ar
    30    17    36    1
    31    18    24   ar
    32    18    19    1
    33    19    20   am
    34    19    37    1
    35    20    21    2
    36    20    22    1
    37    22    23    1
    38    23    24    1
    39    23    38    1
    40    23    39    1
    41    24    25   ar
    42    25    40    1
@<TRIPOS>SUBSTRUCTURE
     1 ZINC001135312623        1 TEMP              0 ****  ****    0 ROOT


##########                                Name:    ZINC000431691749
##########                DOCK_Rotatable_Bonds:                   4
##########                         Heavy_Atoms:                  24
##########                    Molecular_Weight:             328.454
##########                DOCK_Rotatable_Bonds:                   4
##########                       Formal_Charge:         -0.00999957
##########                     HBond_Acceptors:                   4
##########                        HBond_Donors:                   0
##########                         Heavy_Atoms:                  24
##########                          Grid_Score:          -29.182966
##########                     Grid_vdw_energy:          -28.644651
##########                      Grid_es_energy:           -0.538314
##########           Internal_energy_repulsive:          101.474648

@<TRIPOS>MOLECULE
ZINC000431691749
 52 54 1 0 0
SMALL
USER_CHARGES


@<TRIPOS>ATOM
      1 C1        -13.6551    2.4074   50.4846 C.3     1  ZINC000431691749   -0.1200
      2 C2        -12.1985    2.7859   50.4072 C.ar    1  ZINC000431691749   -0.0800
      3 C3        -11.7578    3.6381   49.4123 C.ar    1  ZINC000431691749   -0.1200
      4 C4        -10.4215    3.9853   49.3413 C.ar    1  ZINC000431691749   -0.1100
      5 C5         -9.5262    3.4807   50.2655 C.ar    1  ZINC000431691749   -0.1100
      6 C6         -9.9671    2.6289   51.2613 C.ar    1  ZINC000431691749   -0.0800
      7 C7         -8.9910    2.0783   52.2688 C.3     1  ZINC000431691749    0.2000
      8 H8         -8.9544    0.9923   52.1834 H       1  ZINC000431691749    0.1100
      9 N9         -7.6597    2.6334   52.0126 N.am    1  ZINC000431691749   -0.5700
     10 C10        -7.3858    3.9521   51.9636 C.2     1  ZINC000431691749    0.5200
     11 O11        -8.1651    4.8680   52.1174 O.2     1  ZINC000431691749   -0.4400
     12 C12        -5.9006    4.0518   51.6771 C.3     1  ZINC000431691749    0.0900
     13 H13        -5.7261    4.5660   50.7320 H       1  ZINC000431691749    0.1300
     14 C14        -5.1791    4.7695   52.8197 C.3     1  ZINC000431691749   -0.1500
     15 N15        -5.4697    2.6458   51.5898 N.am    1  ZINC000431691749   -0.6000
     16 C16        -4.1124    2.1611   51.3270 C.3     1  ZINC000431691749    0.1500
     17 C17        -4.0238    1.1939   50.1346 C.3     1  ZINC000431691749   -0.1600
     18 C18        -3.8108    2.4318   49.2474 C.3     1  ZINC000431691749   -0.1400
     19 C19        -3.2597    3.1363   50.4983 C.3     1  ZINC000431691749   -0.1500
     20 C20        -6.5644    1.8939   51.8040 C.2     1  ZINC000431691749    0.7000
     21 O21        -6.5603    0.6785   51.8009 O.2     1  ZINC000431691749   -0.5300
     22 C22        -9.4416    2.4640   53.6791 C.3     1  ZINC000431691749   -0.0700
     23 C23        -8.2156    2.7831   54.5370 C.3     1  ZINC000431691749   -0.1400
     24 C24       -10.3475    3.6949   53.6063 C.3     1  ZINC000431691749   -0.1400
     25 C25       -10.2126    1.2997   54.3045 C.3     1  ZINC000431691749   -0.1600
     26 C26       -11.3038    2.2852   51.3348 C.ar    1  ZINC000431691749   -0.1100
     27 H27       -14.1842    3.1251   51.1115 H       1  ZINC000431691749    0.0700
     28 H28       -14.0856    2.4128   49.4832 H       1  ZINC000431691749    0.0700
     29 H29       -13.7490    1.4104   50.9151 H       1  ZINC000431691749    0.0700
     30 H30       -12.4573    4.0324   48.6901 H       1  ZINC000431691749    0.1200
     31 H31       -10.0770    4.6507   48.5634 H       1  ZINC000431691749    0.1200
     32 H32        -8.4822    3.7514   50.2097 H       1  ZINC000431691749    0.1100
     33 H33        -5.3449    4.2280   53.7510 H       1  ZINC000431691749    0.0700
     34 H34        -4.1107    4.8082   52.6072 H       1  ZINC000431691749    0.0800
     35 H35        -5.5676    5.7834   52.9147 H       1  ZINC000431691749    0.0800
     36 H36        -3.6117    1.7972   52.2243 H       1  ZINC000431691749    0.1000
     37 H37        -3.1596    0.5308   50.1737 H       1  ZINC000431691749    0.0900
     38 H38        -4.9552    0.6657   49.9309 H       1  ZINC000431691749    0.0700
     39 H39        -3.0662    2.2853   48.4651 H       1  ZINC000431691749    0.0700
     40 H40        -4.7382    2.8664   48.8744 H       1  ZINC000431691749    0.0800
     41 H41        -3.5741    4.1761   50.5881 H       1  ZINC000431691749    0.1000
     42 H42        -2.1866    3.0041   50.6367 H       1  ZINC000431691749    0.0900
     43 H43        -7.6664    3.6126   54.0914 H       1  ZINC000431691749    0.0600
     44 H44        -8.5367    3.0580   55.5416 H       1  ZINC000431691749    0.0600
     45 H45        -7.5702    1.9063   54.5889 H       1  ZINC000431691749    0.0600
     46 H46       -11.2209    3.4675   52.9951 H       1  ZINC000431691749    0.0500
     47 H47       -10.6685    3.9697   54.6110 H       1  ZINC000431691749    0.0600
     48 H48        -9.7983    4.5243   53.1608 H       1  ZINC000431691749    0.0500
     49 H49        -9.9025    0.3655   53.8364 H       1  ZINC000431691749    0.0700
     50 H50       -10.0030    1.2577   55.3733 H       1  ZINC000431691749    0.0400
     51 H51       -11.2814    1.4467   54.1492 H       1  ZINC000431691749    0.1000
     52 H52       -11.6483    1.6199   52.1128 H       1  ZINC000431691749    0.1300
@<TRIPOS>BOND
     1     1     2    1
     2     1    27    1
     3     1    28    1
     4     1    29    1
     5     2    26   ar
     6     2     3   ar
     7     3     4   ar
     8     3    30    1
     9     4     5   ar
    10     4    31    1
    11     5     6   ar
    12     5    32    1
    13     6     7    1
    14     6    26   ar
    15     7     8    1
    16     7     9    1
    17     7    22    1
    18     9    20   am
    19     9    10   am
    20    10    11    2
    21    10    12    1
    22    12    13    1
    23    12    14    1
    24    12    15    1
    25    14    33    1
    26    14    34    1
    27    14    35    1
    28    15    16    1
    29    15    20   am
    30    16    19    1
    31    16    17    1
    32    16    36    1
    33    17    18    1
    34    17    37    1
    35    17    38    1
    36    18    19    1
    37    18    39    1
    38    18    40    1
    39    19    41    1
    40    19    42    1
    41    20    21    2
    42    22    23    1
    43    22    24    1
    44    22    25    1
    45    23    43    1
    46    23    44    1
    47    23    45    1
    48    24    46    1
    49    24    47    1
    50    24    48    1
    51    25    49    1
    52    25    50    1
    53    25    51    1
    54    26    52    1
@<TRIPOS>SUBSTRUCTURE
     1 ZINC000431691749        1 TEMP              0 ****  ****    0 ROOT


##########                                Name:    ZINC000931749147
##########                DOCK_Rotatable_Bonds:                   5
##########                         Heavy_Atoms:                  25
##########                    Molecular_Weight:             354.397
##########                DOCK_Rotatable_Bonds:                   5
##########                       Formal_Charge:        -4.76837e-07
##########                     HBond_Acceptors:                   7
##########                        HBond_Donors:                   1
##########                         Heavy_Atoms:                  25
##########                          Grid_Score:          -29.176300
##########                     Grid_vdw_energy:          -24.639120
##########                      Grid_es_energy:           -4.537180
##########           Internal_energy_repulsive:          153.874252

@<TRIPOS>MOLECULE
ZINC000931749147
 49 51 1 0 0
SMALL
USER_CHARGES


@<TRIPOS>ATOM
      1 C1         -9.1850   -1.9726   58.7385 C.3     1  ZINC000931749147   -0.1100
      2 C2        -10.3988   -1.2006   59.1879 C.ar    1  ZINC000931749147   -0.1300
      3 C3        -10.7563   -0.0278   58.5372 C.ar    1  ZINC000931749147    0.1800
      4 N4         -9.9896    0.4391   57.4622 N.am    1  ZINC000931749147   -0.6800
      5 C5        -10.4199    0.2567   56.1981 C.2     1  ZINC000931749147    0.7100
      6 O6        -11.4739   -0.3132   55.9909 O.2     1  ZINC000931749147   -0.5500
      7 N7         -9.6821    0.7060   55.1636 N.am    1  ZINC000931749147   -0.6200
      8 C8         -8.4036    1.3986   55.3894 C.3     1  ZINC000931749147    0.0700
      9 C9         -8.4154    2.7078   54.5920 C.3     1  ZINC000931749147    0.0500
     10 O10        -8.7539    2.4273   53.2317 O.3     1  ZINC000931749147   -0.3700
     11 C11       -10.0588    1.8700   53.0562 C.3     1  ZINC000931749147    0.0500
     12 C12       -10.1283    0.5130   53.7746 C.3     1  ZINC000931749147    0.1300
     13 H13        -9.4789   -0.2029   53.2708 H       1  ZINC000931749147    0.0900
     14 C14       -11.5689   -0.0023   53.7645 C.3     1  ZINC000931749147   -0.1100
     15 C15       -11.5715   -1.5138   54.0017 C.3     1  ZINC000931749147   -0.1000
     16 C16       -12.9603   -1.9562   54.4729 C.3     1  ZINC000931749147   -0.1500
     17 C17       -12.9757   -3.4787   54.6317 C.3     1  ZINC000931749147    0.0600
     18 O18       -12.6224   -4.0896   53.3890 O.3     1  ZINC000931749147   -0.3800
     19 C19       -11.3152   -3.7497   52.9226 C.3     1  ZINC000931749147    0.0600
     20 C20       -11.2330   -2.2381   52.6951 C.3     1  ZINC000931749147   -0.1500
     21 C21       -11.8751    0.6819   58.9530 C.ar    1  ZINC000931749147   -0.1200
     22 C22       -12.6310    0.2205   60.0130 C.ar    1  ZINC000931749147   -0.1100
     23 C23       -12.2746   -0.9492   60.6619 C.ar    1  ZINC000931749147    0.0500
     24 F24       -13.0154   -1.3986   61.6984 F       1  ZINC000931749147   -0.1300
     25 C25       -11.1611   -1.6631   60.2454 C.ar    1  ZINC000931749147    0.0900
     26 F26       -10.8145   -2.8045   60.8797 F       1  ZINC000931749147   -0.1200
     27 H27        -9.4756   -2.6946   57.9755 H       1  ZINC000931749147    0.0800
     28 H28        -8.4487   -1.2834   58.3251 H       1  ZINC000931749147    0.0700
     29 H29        -8.7528   -2.4980   59.5902 H       1  ZINC000931749147    0.0800
     30 H30        -9.1488    0.8938   57.6274 H       1  ZINC000931749147    0.4100
     31 H31        -8.2866    1.6164   56.4510 H       1  ZINC000931749147    0.0800
     32 H32        -7.5804    0.7696   55.0503 H       1  ZINC000931749147    0.0900
     33 H33        -9.1537    3.3870   55.0183 H       1  ZINC000931749147    0.0600
     34 H34        -7.4286    3.1686   54.6341 H       1  ZINC000931749147    0.1100
     35 H35       -10.8030    2.5462   53.4768 H       1  ZINC000931749147    0.0600
     36 H36       -10.2541    1.7282   51.9932 H       1  ZINC000931749147    0.1100
     37 H37       -12.1365    0.4904   54.5539 H       1  ZINC000931749147    0.1100
     38 H38       -12.0256    0.2147   52.7989 H       1  ZINC000931749147    0.0700
     39 H39       -10.8304   -1.7651   54.7605 H       1  ZINC000931749147    0.0700
     40 H40       -13.1862   -1.4877   55.4307 H       1  ZINC000931749147    0.0700
     41 H41       -13.7066   -1.6592   53.7360 H       1  ZINC000931749147    0.0700
     42 H42       -12.2577   -3.7716   55.3978 H       1  ZINC000931749147    0.0500
     43 H43       -13.9739   -3.8035   54.9257 H       1  ZINC000931749147    0.0900
     44 H44       -10.5755   -4.0462   53.6663 H       1  ZINC000931749147    0.0500
     45 H45       -11.1171   -4.2697   51.9853 H       1  ZINC000931749147    0.0900
     46 H46       -11.9445   -1.9468   51.9224 H       1  ZINC000931749147    0.0700
     47 H47       -10.2238   -1.9712   52.3816 H       1  ZINC000931749147    0.0700
     48 H48       -12.1540    1.5948   58.4478 H       1  ZINC000931749147    0.1800
     49 H49       -13.5009    0.7730   60.3361 H       1  ZINC000931749147    0.1500
@<TRIPOS>BOND
     1     1     2    1
     2     1    27    1
     3     1    28    1
     4     1    29    1
     5     2    25   ar
     6     2     3   ar
     7     3     4    1
     8     3    21   ar
     9     4     5   am
    10     4    30    1
    11     5     6    2
    12     5     7   am
    13     7    12    1
    14     7     8    1
    15     8     9    1
    16     8    31    1
    17     8    32    1
    18     9    10    1
    19     9    33    1
    20     9    34    1
    21    10    11    1
    22    11    12    1
    23    11    35    1
    24    11    36    1
    25    12    13    1
    26    12    14    1
    27    14    15    1
    28    14    37    1
    29    14    38    1
    30    15    20    1
    31    15    16    1
    32    15    39    1
    33    16    17    1
    34    16    40    1
    35    16    41    1
    36    17    18    1
    37    17    42    1
    38    17    43    1
    39    18    19    1
    40    19    20    1
    41    19    44    1
    42    19    45    1
    43    20    46    1
    44    20    47    1
    45    21    22   ar
    46    21    48    1
    47    22    23   ar
    48    22    49    1
    49    23    24    1
    50    23    25   ar
    51    25    26    1
@<TRIPOS>SUBSTRUCTURE
     1 ZINC000931749147        1 TEMP              0 ****  ****    0 ROOT


##########                                Name:    ZINC000648570180
##########                DOCK_Rotatable_Bonds:                   4
##########                         Heavy_Atoms:                  25
##########                    Molecular_Weight:             342.484
##########                DOCK_Rotatable_Bonds:                   4
##########                       Formal_Charge:          0.00999971
##########                     HBond_Acceptors:                   5
##########                        HBond_Donors:                   0
##########                         Heavy_Atoms:                  25
##########                          Grid_Score:          -29.087875
##########                     Grid_vdw_energy:          -28.471523
##########                      Grid_es_energy:           -0.616351
##########           Internal_energy_repulsive:           79.964729

@<TRIPOS>MOLECULE
ZINC000648570180
 55 58 1 0 0
SMALL
USER_CHARGES


@<TRIPOS>ATOM
      1 C1        -12.9347    2.2468   51.2095 C.3     1  ZINC000648570180   -0.1500
      2 C2        -13.9141    1.7602   50.1395 C.3     1  ZINC000648570180   -0.0600
      3 C3        -15.1585    2.6503   50.1250 C.3     1  ZINC000648570180   -0.1400
      4 C4        -13.2349    1.7770   48.7545 C.3     1  ZINC000648570180   -0.1200
      5 C5        -13.7934    0.5199   48.0424 C.3     1  ZINC000648570180   -0.1300
      6 C6        -13.8633   -0.5195   49.1886 C.3     1  ZINC000648570180   -0.1200
      7 C7        -14.3136    0.3001   50.4155 C.3     1  ZINC000648570180   -0.0700
      8 H8        -15.3942    0.2255   50.5383 H       1  ZINC000648570180    0.0800
      9 C9        -13.6074   -0.2087   51.6737 C.3     1  ZINC000648570180   -0.1000
     10 H10       -12.5769    0.1447   51.7108 H       1  ZINC000648570180    0.1000
     11 C11       -14.3831    0.2040   52.9525 C.3     1  ZINC000648570180   -0.1400
     12 C12       -13.9846   -0.8890   53.9664 C.3     1  ZINC000648570180    0.1200
     13 N13       -13.5406   -2.0592   53.1949 N.am    1  ZINC000648570180   -0.6000
     14 C14       -13.0920   -3.2188   53.7149 C.2     1  ZINC000648570180    0.5800
     15 O15       -12.7490   -4.1221   52.9787 O.2     1  ZINC000648570180   -0.5200
     16 C16       -13.0172   -3.3922   55.1875 C.ar    1  ZINC000648570180    0.1600
     17 C17       -13.9452   -4.1917   55.8542 C.ar    1  ZINC000648570180   -0.2000
     18 C18       -13.8347   -4.3240   57.2317 C.ar    1  ZINC000648570180    0.1800
     19 N19       -12.8613   -3.6937   57.8645 N.ar    1  ZINC000648570180   -0.5400
     20 C20       -11.9936   -2.9403   57.2032 C.ar    1  ZINC000648570180    0.4800
     21 N21       -10.9883   -2.2966   57.9042 N.3     1  ZINC000648570180   -0.4400
     22 C22       -11.5516   -1.4557   58.9913 C.3     1  ZINC000648570180    0.0500
     23 C23       -10.3494   -1.2629   59.9495 C.3     1  ZINC000648570180   -0.1200
     24 C24        -9.6404   -2.6357   59.8950 C.3     1  ZINC000648570180   -0.1300
     25 C25       -10.0976   -3.2721   58.5694 C.3     1  ZINC000648570180    0.0400
     26 N26       -12.0603   -2.7916   55.8906 N.ar    1  ZINC000648570180   -0.5000
     27 C27       -13.6674   -1.7543   51.7576 C.3     1  ZINC000648570180    0.1100
     28 H28       -12.1044    1.5450   51.2882 H       1  ZINC000648570180    0.0600
     29 H29       -12.5542    3.2303   50.9335 H       1  ZINC000648570180    0.0500
     30 H30       -13.4477    2.3119   52.1690 H       1  ZINC000648570180    0.0700
     31 H31       -14.8665    3.6797   49.9167 H       1  ZINC000648570180    0.0500
     32 H32       -15.8441    2.3036   49.3518 H       1  ZINC000648570180    0.0500
     33 H33       -15.6513    2.6018   51.0959 H       1  ZINC000648570180    0.0500
     34 H34       -13.5081    2.6788   48.2066 H       1  ZINC000648570180    0.0600
     35 H35       -12.1523    1.7066   48.8597 H       1  ZINC000648570180    0.0700
     36 H36       -14.7860    0.7149   47.6365 H       1  ZINC000648570180    0.0700
     37 H37       -13.1132    0.1857   47.2589 H       1  ZINC000648570180    0.0700
     38 H38       -14.5951   -1.2935   48.9575 H       1  ZINC000648570180    0.0700
     39 H39       -12.8822   -0.9607   49.3639 H       1  ZINC000648570180    0.0700
     40 H40       -14.0618    1.1865   53.2983 H       1  ZINC000648570180    0.0900
     41 H41       -15.4581    0.1898   52.7727 H       1  ZINC000648570180    0.0800
     42 H42       -13.1713   -0.5306   54.5973 H       1  ZINC000648570180    0.0800
     43 H43       -14.8442   -1.1551   54.5816 H       1  ZINC000648570180    0.0700
     44 H44       -14.7316   -4.6956   55.3118 H       1  ZINC000648570180    0.1600
     45 H45       -14.5365   -4.9351   57.7797 H       1  ZINC000648570180    0.1800
     46 H46       -11.8892   -0.4961   58.5996 H       1  ZINC000648570180    0.1000
     47 H47       -12.3666   -1.9746   59.4959 H       1  ZINC000648570180    0.0500
     48 H48        -9.6905   -0.4738   59.5877 H       1  ZINC000648570180    0.0800
     49 H49       -10.6933   -1.0464   60.9609 H       1  ZINC000648570180    0.0800
     50 H50        -8.5585   -2.5030   59.8976 H       1  ZINC000648570180    0.0800
     51 H51        -9.9485   -3.2544   60.7378 H       1  ZINC000648570180    0.0700
     52 H52       -10.6414   -4.1954   58.7689 H       1  ZINC000648570180    0.0900
     53 H53        -9.2330   -3.4763   57.9378 H       1  ZINC000648570180    0.0900
     54 H54       -14.6215   -2.1174   51.3756 H       1  ZINC000648570180    0.0700
     55 H55       -12.8417   -2.1979   51.2014 H       1  ZINC000648570180    0.0800
@<TRIPOS>BOND
     1     1     2    1
     2     1    28    1
     3     1    29    1
     4     1    30    1
     5     2     7    1
     6     2     3    1
     7     2     4    1
     8     3    31    1
     9     3    32    1
    10     3    33    1
    11     4     5    1
    12     4    34    1
    13     4    35    1
    14     5     6    1
    15     5    36    1
    16     5    37    1
    17     6     7    1
    18     6    38    1
    19     6    39    1
    20     7     8    1
    21     7     9    1
    22     9    10    1
    23     9    27    1
    24     9    11    1
    25    11    12    1
    26    11    40    1
    27    11    41    1
    28    12    13    1
    29    12    42    1
    30    12    43    1
    31    13    14   am
    32    13    27    1
    33    14    15    2
    34    14    16    1
    35    16    26   ar
    36    16    17   ar
    37    17    18   ar
    38    17    44    1
    39    18    19   ar
    40    18    45    1
    41    19    20   ar
    42    20    21    1
    43    20    26   ar
    44    21    25    1
    45    21    22    1
    46    22    23    1
    47    22    46    1
    48    22    47    1
    49    23    24    1
    50    23    48    1
    51    23    49    1
    52    24    25    1
    53    24    50    1
    54    24    51    1
    55    25    52    1
    56    25    53    1
    57    27    54    1
    58    27    55    1
@<TRIPOS>SUBSTRUCTURE
     1 ZINC000648570180        1 TEMP              0 ****  ****    0 ROOT


##########                                Name:    ZINC000463474628
##########                DOCK_Rotatable_Bonds:                   5
##########                         Heavy_Atoms:                  25
##########                    Molecular_Weight:              407.35
##########                DOCK_Rotatable_Bonds:                   5
##########                       Formal_Charge:           0.0200004
##########                     HBond_Acceptors:                   4
##########                        HBond_Donors:                   0
##########                         Heavy_Atoms:                  25
##########                          Grid_Score:          -28.899799
##########                     Grid_vdw_energy:          -28.066832
##########                      Grid_es_energy:           -0.832967
##########           Internal_energy_repulsive:           25.602409

@<TRIPOS>MOLECULE
ZINC000463474628
 52 54 1 0 0
SMALL
USER_CHARGES


@<TRIPOS>ATOM
      1 C1        -12.6307    1.6254   54.2516 C.3     1  ZINC000463474628   -0.1400
      2 C2        -12.9849    1.4314   52.7758 C.3     1  ZINC000463474628   -0.1300
      3 C3        -11.9455    0.5222   52.1171 C.3     1  ZINC000463474628    0.1400
      4 H4        -12.1330    0.4610   51.0452 H       1  ZINC000463474628    0.0800
      5 C5        -12.0096   -0.8872   52.7425 C.3     1  ZINC000463474628   -0.1300
      6 C6        -10.5170   -1.3050   52.8113 C.3     1  ZINC000463474628   -0.1300
      7 C7         -9.8299    0.0466   53.1285 C.3     1  ZINC000463474628    0.0900
      8 N8        -10.5946    1.0496   52.3592 N.am    1  ZINC000463474628   -0.6100
      9 C9        -10.1306    2.2472   51.9507 C.2     1  ZINC000463474628    0.5300
     10 O10       -10.8502    2.9942   51.3222 O.2     1  ZINC000463474628   -0.5100
     11 C11        -8.7173    2.6580   52.2749 C.3     1  ZINC000463474628   -0.1200
     12 H12        -8.4220    2.2233   53.2298 H       1  ZINC000463474628    0.1000
     13 C13        -8.6361    4.1838   52.3615 C.3     1  ZINC000463474628   -0.1000
     14 C14        -7.2087    4.6007   52.7230 C.3     1  ZINC000463474628   -0.1300
     15 C15        -6.2494    4.1269   51.6265 C.3     1  ZINC000463474628    0.0900
     16 N16        -6.4259    2.6808   51.4363 N.am    1  ZINC000463474628   -0.6000
     17 C17        -5.3700    1.8457   51.5019 C.2     1  ZINC000463474628    0.5700
     18 O18        -5.5292    0.6511   51.3429 O.2     1  ZINC000463474628   -0.5200
     19 C19        -4.0188    2.3823   51.7672 C.ar    1  ZINC000463474628   -0.1200
     20 C20        -3.6590    2.7671   53.0599 C.ar    1  ZINC000463474628   -0.0800
     21 C21        -2.3965    3.2673   53.3013 C.ar    1  ZINC000463474628   -0.1000
     22 C22        -1.4868    3.3882   52.2645 C.ar    1  ZINC000463474628   -0.0700
     23 Br23        0.2423    4.0743   52.6041 Br      1  ZINC000463474628   -0.0400
     24 C24        -1.8379    3.0081   50.9798 C.ar    1  ZINC000463474628   -0.0900
     25 C25        -3.0950    2.5013   50.7270 C.ar    1  ZINC000463474628   -0.0300
     26 C26        -3.4755    2.0883   49.3285 C.3     1  ZINC000463474628   -0.1300
     27 C27        -7.7751    2.1615   51.1738 C.3     1  ZINC000463474628    0.1200
     28 H28       -13.0098    0.7831   54.8300 H       1  ZINC000463474628    0.0700
     29 H29       -11.5477    1.6830   54.3607 H       1  ZINC000463474628    0.0600
     30 H30       -13.0822    2.5485   54.6152 H       1  ZINC000463474628    0.0300
     31 H31       -13.9709    0.9736   52.6961 H       1  ZINC000463474628    0.0600
     32 H32       -12.9918    2.3987   52.2736 H       1  ZINC000463474628    0.0700
     33 H33       -12.4451   -0.8467   53.7409 H       1  ZINC000463474628    0.0800
     34 H34       -12.5716   -1.5678   52.1029 H       1  ZINC000463474628    0.0800
     35 H35       -10.3495   -2.0259   53.6116 H       1  ZINC000463474628    0.0900
     36 H36       -10.1775   -1.7007   51.8540 H       1  ZINC000463474628    0.0800
     37 H37        -9.8879    0.2603   54.1957 H       1  ZINC000463474628    0.0700
     38 H38        -8.7907    0.0302   52.8000 H       1  ZINC000463474628    0.0800
     39 H39        -8.9083    4.6171   51.3991 H       1  ZINC000463474628    0.0800
     40 H40        -9.3238    4.5412   53.1279 H       1  ZINC000463474628    0.0700
     41 H41        -7.1570    5.6862   52.8074 H       1  ZINC000463474628    0.0800
     42 H42        -6.9270    4.1476   53.6735 H       1  ZINC000463474628    0.0700
     43 H43        -6.4728    4.6478   50.6955 H       1  ZINC000463474628    0.0800
     44 H44        -5.2218    4.3334   51.9257 H       1  ZINC000463474628    0.1000
     45 H45        -4.3679    2.6737   53.8693 H       1  ZINC000463474628    0.1400
     46 H46        -2.1170    3.5657   54.3009 H       1  ZINC000463474628    0.1400
     47 H47        -1.1241    3.1051   50.1750 H       1  ZINC000463474628    0.1400
     48 H48        -3.3095    1.0178   49.2079 H       1  ZINC000463474628    0.0700
     49 H49        -4.5278    2.3145   49.1565 H       1  ZINC000463474628    0.0900
     50 H50        -2.8643    2.6339   48.6096 H       1  ZINC000463474628    0.0700
     51 H51        -7.7538    1.0717   51.1740 H       1  ZINC000463474628    0.1000
     52 H52        -8.1234    2.5221   50.2059 H       1  ZINC000463474628    0.0800
@<TRIPOS>BOND
     1     1     2    1
     2     1    28    1
     3     1    29    1
     4     1    30    1
     5     2     3    1
     6     2    31    1
     7     2    32    1
     8     3     4    1
     9     3     8    1
    10     3     5    1
    11     5     6    1
    12     5    33    1
    13     5    34    1
    14     6     7    1
    15     6    35    1
    16     6    36    1
    17     7     8    1
    18     7    37    1
    19     7    38    1
    20     8     9   am
    21     9    10    2
    22     9    11    1
    23    11    12    1
    24    11    27    1
    25    11    13    1
    26    13    14    1
    27    13    39    1
    28    13    40    1
    29    14    15    1
    30    14    41    1
    31    14    42    1
    32    15    16    1
    33    15    43    1
    34    15    44    1
    35    16    17   am
    36    16    27    1
    37    17    18    2
    38    17    19    1
    39    19    25   ar
    40    19    20   ar
    41    20    21   ar
    42    20    45    1
    43    21    22   ar
    44    21    46    1
    45    22    23    1
    46    22    24   ar
    47    24    25   ar
    48    24    47    1
    49    25    26    1
    50    26    48    1
    51    26    49    1
    52    26    50    1
    53    27    51    1
    54    27    52    1
@<TRIPOS>SUBSTRUCTURE
     1 ZINC000463474628        1 TEMP              0 ****  ****    0 ROOT


##########                                Name:    ZINC001193456967
##########                DOCK_Rotatable_Bonds:                   3
##########                         Heavy_Atoms:                  27
##########                    Molecular_Weight:             392.451
##########                DOCK_Rotatable_Bonds:                   3
##########                       Formal_Charge:           0.0300002
##########                     HBond_Acceptors:                   8
##########                        HBond_Donors:                   0
##########                         Heavy_Atoms:                  27
##########                          Grid_Score:          -28.849463
##########                     Grid_vdw_energy:          -27.877001
##########                      Grid_es_energy:           -0.972461
##########           Internal_energy_repulsive:           36.833015

@<TRIPOS>MOLECULE
ZINC001193456967
 48 50 1 0 0
SMALL
USER_CHARGES


@<TRIPOS>ATOM
      1 C1         -0.8870    2.1559   50.4822 C.3     1  ZINC001193456967   -0.1400
      2 C2         -2.3810    2.3449   50.5401 C.ar    1  ZINC001193456967    0.0300
      3 C3         -3.2171    1.4372   49.9178 C.ar    1  ZINC001193456967   -0.1400
      4 C4         -4.5877    1.6107   49.9709 C.ar    1  ZINC001193456967    0.0300
      5 C5         -5.1218    2.6916   50.6466 C.ar    1  ZINC001193456967   -0.6900
      6 S6         -6.8685    2.9131   50.7138 S.o2    1  ZINC001193456967    2.7100
      7 O7         -7.0892    4.1856   51.3064 O.2     1  ZINC001193456967   -0.9300
      8 O8         -7.3679    2.5554   49.4324 O.2     1  ZINC001193456967   -0.9400
      9 N9         -7.4642    1.7922   51.7773 N.am    1  ZINC001193456967   -1.0000
     10 C10        -7.3342    0.3295   51.6465 C.3     1  ZINC001193456967    0.1100
     11 C11        -8.5154   -0.2484   52.4653 C.3     1  ZINC001193456967   -0.1200
     12 C12        -8.5809    0.7413   53.6584 C.3     1  ZINC001193456967   -0.0500
     13 H13        -7.8553    0.4696   54.4251 H       1  ZINC001193456967    0.1000
     14 C14        -9.9719    0.7882   54.2364 C.ar    1  ZINC001193456967   -0.0800
     15 C15       -11.0698    0.6686   53.4048 C.ar    1  ZINC001193456967   -0.0800
     16 C16       -12.3458    0.7116   53.9336 C.ar    1  ZINC001193456967   -0.1500
     17 C17       -12.5245    0.8740   55.2970 C.ar    1  ZINC001193456967    0.1000
     18 F18       -13.7715    0.9157   55.8151 F       1  ZINC001193456967   -0.1400
     19 C19       -11.4242    0.9933   56.1289 C.ar    1  ZINC001193456967   -0.1500
     20 C20       -10.1491    0.9452   55.5984 C.ar    1  ZINC001193456967   -0.0800
     21 C21        -8.2048    2.0911   53.0117 C.3     1  ZINC001193456967    0.1900
     22 C22        -7.3285    2.9007   53.9696 C.3     1  ZINC001193456967   -0.1800
     23 C23        -9.4730    2.8767   52.6721 C.3     1  ZINC001193456967   -0.1800
     24 C24        -4.2855    3.5990   51.2702 C.ar    1  ZINC001193456967    0.0400
     25 C25        -2.9154    3.4234   51.2204 C.ar    1  ZINC001193456967   -0.0600
     26 N26        -2.0200    4.3947   51.8879 N.pl3   1  ZINC001193456967    0.0200
     27 O27        -1.0089    4.0074   52.4458 O.2     1  ZINC001193456967   -0.1400
     28 O28        -2.2943    5.5814   51.8795 O.2     1  ZINC001193456967   -0.1500
     29 H29        -0.5517    1.6349   51.3789 H       1  ZINC001193456967    0.1100
     30 H30        -0.6292    1.5668   49.6021 H       1  ZINC001193456967    0.0900
     31 H31        -0.3996    3.1290   50.4237 H       1  ZINC001193456967    0.0800
     32 H32        -2.7998    0.5925   49.3898 H       1  ZINC001193456967    0.1600
     33 H33        -5.2411    0.9017   49.4841 H       1  ZINC001193456967    0.1600
     34 H34        -7.4168    0.0334   50.6007 H       1  ZINC001193456967    0.0900
     35 H35        -6.3842   -0.0057   52.0626 H       1  ZINC001193456967    0.0700
     36 H36        -9.4395   -0.2256   51.8876 H       1  ZINC001193456967    0.0900
     37 H37        -8.2955   -1.2595   52.8080 H       1  ZINC001193456967    0.0900
     38 H38       -10.9302    0.5419   52.3413 H       1  ZINC001193456967    0.1400
     39 H39       -13.2034    0.6188   53.2837 H       1  ZINC001193456967    0.1400
     40 H40       -11.5625    1.1203   57.1925 H       1  ZINC001193456967    0.1400
     41 H41        -9.2906    1.0378   56.2472 H       1  ZINC001193456967    0.1300
     42 H42        -6.4191    2.3419   54.1902 H       1  ZINC001193456967    0.0700
     43 H43        -7.0669    3.8521   53.5063 H       1  ZINC001193456967    0.0600
     44 H44        -7.8752    3.0850   54.8943 H       1  ZINC001193456967    0.0800
     45 H45       -10.0937    2.9676   53.5635 H       1  ZINC001193456967    0.0800
     46 H46        -9.2006    3.8703   52.3163 H       1  ZINC001193456967    0.0900
     47 H47       -10.0282    2.3519   51.8947 H       1  ZINC001193456967    0.0700
     48 H48        -4.7028    4.4434   51.7985 H       1  ZINC001193456967    0.1600
@<TRIPOS>BOND
     1     1     2    1
     2     1    29    1
     3     1    30    1
     4     1    31    1
     5     2    25   ar
     6     2     3   ar
     7     3     4   ar
     8     3    32    1
     9     4     5   ar
    10     4    33    1
    11     5     6    1
    12     5    24   ar
    13     6     7    2
    14     6     8    2
    15     6     9   am
    16     9    21    1
    17     9    10    1
    18    10    11    1
    19    10    34    1
    20    10    35    1
    21    11    12    1
    22    11    36    1
    23    11    37    1
    24    12    13    1
    25    12    14    1
    26    12    21    1
    27    14    20   ar
    28    14    15   ar
    29    15    16   ar
    30    15    38    1
    31    16    17   ar
    32    16    39    1
    33    17    18    1
    34    17    19   ar
    35    19    20   ar
    36    19    40    1
    37    20    41    1
    38    21    22    1
    39    21    23    1
    40    22    42    1
    41    22    43    1
    42    22    44    1
    43    23    45    1
    44    23    46    1
    45    23    47    1
    46    24    25   ar
    47    24    48    1
    48    25    26    1
    49    26    27    2
    50    26    28    2
@<TRIPOS>SUBSTRUCTURE
     1 ZINC001193456967        1 TEMP              0 ****  ****    0 ROOT


##########                                Name:    ZINC000375477402
##########                DOCK_Rotatable_Bonds:                   5
##########                         Heavy_Atoms:                  26
##########                    Molecular_Weight:             378.342
##########                DOCK_Rotatable_Bonds:                   5
##########                       Formal_Charge:         -1.2666e-07
##########                     HBond_Acceptors:                   9
##########                        HBond_Donors:                   1
##########                         Heavy_Atoms:                  26
##########                          Grid_Score:          -28.802814
##########                     Grid_vdw_energy:          -27.206638
##########                      Grid_es_energy:           -1.596175
##########           Internal_energy_repulsive:            7.592586

@<TRIPOS>MOLECULE
ZINC000375477402
 45 47 1 0 0
SMALL
USER_CHARGES


@<TRIPOS>ATOM
      1 O1         -8.2336   -0.5852   52.2430 O.2     1  ZINC000375477402   -0.5600
      2 C2         -8.4282    0.5979   52.4451 C.2     1  ZINC000375477402    0.7200
      3 N3         -9.6166    1.0127   52.9268 N.am    1  ZINC000375477402   -0.7300
      4 C4        -10.6760    0.0388   53.2012 C.3     1  ZINC000375477402    0.1800
      5 H5        -10.4891   -0.8716   52.6317 H       1  ZINC000375477402    0.1500
      6 C6        -10.6926   -0.2841   54.6731 C.ar    1  ZINC000375477402   -0.1300
      7 C7        -10.3038    0.6702   55.5943 C.ar    1  ZINC000375477402   -0.0800
      8 C8        -10.3184    0.3756   56.9450 C.ar    1  ZINC000375477402   -0.0900
      9 C9        -10.7217   -0.8738   57.3771 C.ar    1  ZINC000375477402   -0.1100
     10 C10       -11.1116   -1.8316   56.4571 C.ar    1  ZINC000375477402    0.0800
     11 F11       -11.5060   -3.0531   56.8785 F       1  ZINC000375477402   -0.1200
     12 C12       -11.1024   -1.5343   55.1029 C.ar    1  ZINC000375477402    0.1000
     13 F13       -11.4825   -2.4675   54.2030 F       1  ZINC000375477402   -0.1100
     14 C14       -12.0280    0.6272   52.7929 C.3     1  ZINC000375477402    0.4400
     15 F15       -12.2743    1.7880   53.5339 F       1  ZINC000375477402   -0.1600
     16 F16       -12.0079    0.9398   51.4295 F       1  ZINC000375477402   -0.1700
     17 F17       -13.0381   -0.3081   53.0421 F       1  ZINC000375477402   -0.1800
     18 N18        -7.4535    1.4938   52.1926 N.am    1  ZINC000375477402   -0.6300
     19 C19        -7.5518    2.9514   52.3955 C.3     1  ZINC000375477402    0.1000
     20 C20        -6.0873    3.4294   52.5694 C.3     1  ZINC000375477402   -0.1200
     21 C21        -5.3416    2.5053   51.5810 C.3     1  ZINC000375477402   -0.1100
     22 C22        -6.1121    1.1796   51.6746 C.3     1  ZINC000375477402    0.1400
     23 C23        -5.4115    3.0777   50.1707 C.3     1  ZINC000375477402   -0.1100
     24 C24        -4.6106    2.1777   49.2225 C.3     1  ZINC000375477402   -0.1600
     25 C25        -3.1796    2.0436   49.7500 C.3     1  ZINC000375477402    0.0600
     26 O26        -3.2073    1.5010   51.0719 O.3     1  ZINC000375477402   -0.3800
     27 C27        -3.8964    2.3181   52.0224 C.3     1  ZINC000375477402    0.0800
     28 H28        -9.7704    1.9561   53.0918 H       1  ZINC000375477402    0.4000
     29 H29        -9.9881    1.6469   55.2586 H       1  ZINC000375477402    0.1400
     30 H30       -10.0140    1.1224   57.6634 H       1  ZINC000375477402    0.1500
     31 H31       -10.7324   -1.1028   58.4324 H       1  ZINC000375477402    0.1500
     32 H32        -8.0046    3.4257   51.5248 H       1  ZINC000375477402    0.0700
     33 H33        -8.1312    3.1711   53.2922 H       1  ZINC000375477402    0.0700
     34 H34        -5.9810    4.4756   52.2825 H       1  ZINC000375477402    0.0900
     35 H35        -5.7423    3.2688   53.5907 H       1  ZINC000375477402    0.0800
     36 H36        -5.5969    0.4978   52.3513 H       1  ZINC000375477402    0.0800
     37 H37        -6.1985    0.7298   50.6855 H       1  ZINC000375477402    0.0700
     38 H38        -6.4509    3.1171   49.8446 H       1  ZINC000375477402    0.0700
     39 H39        -4.9883    4.0821   50.1638 H       1  ZINC000375477402    0.0700
     40 H40        -5.0755    1.1929   49.1751 H       1  ZINC000375477402    0.0700
     41 H41        -4.5922    2.6218   48.2272 H       1  ZINC000375477402    0.0800
     42 H42        -2.6124    1.3805   49.0969 H       1  ZINC000375477402    0.1000
     43 H43        -2.7065    3.0253   49.7702 H       1  ZINC000375477402    0.0500
     44 H44        -3.4079    3.2903   52.0872 H       1  ZINC000375477402    0.0600
     45 H45        -3.8749    1.8353   52.9994 H       1  ZINC000375477402    0.1000
@<TRIPOS>BOND
     1     1     2    2
     2     2     3   am
     3     2    18   am
     4     3     4    1
     5     3    28    1
     6     4     5    1
     7     4     6    1
     8     4    14    1
     9     6    12   ar
    10     6     7   ar
    11     7     8   ar
    12     7    29    1
    13     8     9   ar
    14     8    30    1
    15     9    10   ar
    16     9    31    1
    17    10    11    1
    18    10    12   ar
    19    12    13    1
    20    14    15    1
    21    14    16    1
    22    14    17    1
    23    18    22    1
    24    18    19    1
    25    19    20    1
    26    19    32    1
    27    19    33    1
    28    20    21    1
    29    20    34    1
    30    20    35    1
    31    21    27    1
    32    21    22    1
    33    21    23    1
    34    22    36    1
    35    22    37    1
    36    23    24    1
    37    23    38    1
    38    23    39    1
    39    24    25    1
    40    24    40    1
    41    24    41    1
    42    25    26    1
    43    25    42    1
    44    25    43    1
    45    26    27    1
    46    27    44    1
    47    27    45    1
@<TRIPOS>SUBSTRUCTURE
     1 ZINC000375477402        1 TEMP              0 ****  ****    0 ROOT


##########                                Name:    ZINC000653668607
##########                DOCK_Rotatable_Bonds:                   5
##########                         Heavy_Atoms:                  28
##########                    Molecular_Weight:             379.459
##########                DOCK_Rotatable_Bonds:                   5
##########                       Formal_Charge:          0.00999918
##########                     HBond_Acceptors:                   6
##########                        HBond_Donors:                   2
##########                         Heavy_Atoms:                  28
##########                          Grid_Score:          -28.680191
##########                     Grid_vdw_energy:          -27.860441
##########                      Grid_es_energy:           -0.819750
##########           Internal_energy_repulsive:           13.683886

@<TRIPOS>MOLECULE
ZINC000653668607
 53 56 1 0 0
SMALL
USER_CHARGES


@<TRIPOS>ATOM
      1 C1         -8.4989    6.1542   52.2220 C.3     1  ZINC000653668607    0.0300
      2 O2         -7.4814    6.1430   53.2252 O.3     1  ZINC000653668607   -0.3200
      3 C3         -6.3099    5.5311   52.9089 C.ar    1  ZINC000653668607    0.1300
      4 C4         -5.1358    5.8995   53.5494 C.ar    1  ZINC000653668607   -0.2000
      5 C5         -3.9530    5.2705   53.2233 C.ar    1  ZINC000653668607   -0.0800
      6 C6         -3.9256    4.2710   52.2590 C.ar    1  ZINC000653668607   -0.1000
      7 C7         -2.6002    3.6179   51.9648 C.3     1  ZINC000653668607   -0.0800
      8 C8         -2.6494    2.8811   50.6279 C.3     1  ZINC000653668607   -0.1200
      9 C9         -3.8793    1.9655   50.6251 C.3     1  ZINC000653668607   -0.1100
     10 C10        -5.1301    2.8391   50.5562 C.3     1  ZINC000653668607   -0.0600
     11 H11        -5.1862    3.3097   49.5746 H       1  ZINC000653668607    0.1000
     12 C12        -6.3494    1.9786   50.7650 C.2     1  ZINC000653668607    0.5200
     13 O13        -7.1090    1.7689   49.8429 O.2     1  ZINC000653668607   -0.5100
     14 N14        -6.5961    1.4419   51.9765 N.am    1  ZINC000653668607   -0.6700
     15 C15        -7.7282    0.6429   52.1704 C.ar    1  ZINC000653668607    0.1500
     16 C16        -7.6385   -0.7360   52.0288 C.ar    1  ZINC000653668607   -0.1100
     17 C17        -8.7562   -1.5258   52.2201 C.ar    1  ZINC000653668607   -0.0900
     18 C18        -9.9656   -0.9472   52.5526 C.ar    1  ZINC000653668607   -0.1200
     19 C19       -10.0620    0.4314   52.6953 C.ar    1  ZINC000653668607    0.1700
     20 N20       -11.2878    1.0169   53.0318 N.am    1  ZINC000653668607   -0.5800
     21 C21       -11.9805    0.5827   54.2460 C.3     1  ZINC000653668607    0.1100
     22 C22       -12.8159    1.7457   54.7915 C.3     1  ZINC000653668607   -0.1500
     23 C23       -13.7568    2.2321   53.6841 C.3     1  ZINC000653668607    0.1100
     24 N24       -12.9676    2.5769   52.5004 N.am    1  ZINC000653668607   -0.7400
     25 C25       -11.8014    1.9684   52.2380 C.2     1  ZINC000653668607    0.7100
     26 O26       -11.1904    2.2849   51.2355 O.2     1  ZINC000653668607   -0.5800
     27 C27        -8.9405    1.2266   52.5101 C.ar    1  ZINC000653668607   -0.1300
     28 C28        -5.0892    3.9074   51.6176 C.ar    1  ZINC000653668607   -0.0300
     29 C29        -6.2828    4.5330   51.9497 C.ar    1  ZINC000653668607   -0.1500
     30 H30        -8.1294    6.6695   51.3354 H       1  ZINC000653668607    0.0600
     31 H31        -8.7646    5.1294   51.9623 H       1  ZINC000653668607    0.0600
     32 H32        -9.3791    6.6723   52.6030 H       1  ZINC000653668607    0.1000
     33 H33        -5.1480    6.6760   54.3000 H       1  ZINC000653668607    0.1300
     34 H34        -3.0392    5.5578   53.7220 H       1  ZINC000653668607    0.1300
     35 H35        -1.8239    4.3821   51.9256 H       1  ZINC000653668607    0.0800
     36 H36        -2.3654    2.9081   52.7580 H       1  ZINC000653668607    0.0800
     37 H37        -2.7266    3.6019   49.8140 H       1  ZINC000653668607    0.0700
     38 H38        -1.7464    2.2831   50.5050 H       1  ZINC000653668607    0.0800
     39 H39        -3.8439    1.3060   49.7579 H       1  ZINC000653668607    0.0700
     40 H40        -3.8966    1.3710   51.5385 H       1  ZINC000653668607    0.0800
     41 H41        -5.9886    1.6095   52.7139 H       1  ZINC000653668607    0.4100
     42 H42        -6.6944   -1.1912   51.7684 H       1  ZINC000653668607    0.1400
     43 H43        -8.6839   -2.5976   52.1090 H       1  ZINC000653668607    0.1300
     44 H44       -10.8374   -1.5671   52.7015 H       1  ZINC000653668607    0.1200
     45 H45       -12.6346   -0.2571   54.0116 H       1  ZINC000653668607    0.0700
     46 H46       -11.2484    0.2778   54.9938 H       1  ZINC000653668607    0.0900
     47 H47       -13.4010    1.4068   55.6464 H       1  ZINC000653668607    0.1000
     48 H48       -12.1566    2.5591   55.0952 H       1  ZINC000653668607    0.0800
     49 H49       -14.4635    1.4412   53.4331 H       1  ZINC000653668607    0.0700
     50 H50       -14.3005    3.1120   54.0284 H       1  ZINC000653668607    0.0900
     51 H51       -13.2928    3.2620   51.8955 H       1  ZINC000653668607    0.4200
     52 H52        -9.0128    2.2984   52.6208 H       1  ZINC000653668607    0.1300
     53 H53        -7.1965    4.2425   51.4526 H       1  ZINC000653668607    0.1200
@<TRIPOS>BOND
     1     1     2    1
     2     1    30    1
     3     1    31    1
     4     1    32    1
     5     2     3    1
     6     3    29   ar
     7     3     4   ar
     8     4     5   ar
     9     4    33    1
    10     5     6   ar
    11     5    34    1
    12     6    28   ar
    13     6     7    1
    14     7     8    1
    15     7    35    1
    16     7    36    1
    17     8     9    1
    18     8    37    1
    19     8    38    1
    20     9    10    1
    21     9    39    1
    22     9    40    1
    23    10    11    1
    24    10    12    1
    25    10    28    1
    26    12    13    2
    27    12    14   am
    28    14    15    1
    29    14    41    1
    30    15    27   ar
    31    15    16   ar
    32    16    17   ar
    33    16    42    1
    34    17    18   ar
    35    17    43    1
    36    18    19   ar
    37    18    44    1
    38    19    20    1
    39    19    27   ar
    40    20    25   am
    41    20    21    1
    42    21    22    1
    43    21    45    1
    44    21    46    1
    45    22    23    1
    46    22    47    1
    47    22    48    1
    48    23    24    1
    49    23    49    1
    50    23    50    1
    51    24    25   am
    52    24    51    1
    53    25    26    2
    54    27    52    1
    55    28    29   ar
    56    29    53    1
@<TRIPOS>SUBSTRUCTURE
     1 ZINC000653668607        1 TEMP              0 ****  ****    0 ROOT


##########                                Name:    ZINC000845755710
##########                DOCK_Rotatable_Bonds:                   3
##########                         Heavy_Atoms:                  24
##########                    Molecular_Weight:             349.814
##########                DOCK_Rotatable_Bonds:                   3
##########                       Formal_Charge:         -0.00999974
##########                     HBond_Acceptors:                   6
##########                        HBond_Donors:                   0
##########                         Heavy_Atoms:                  24
##########                          Grid_Score:          -28.661741
##########                     Grid_vdw_energy:          -28.489128
##########                      Grid_es_energy:           -0.172614
##########           Internal_energy_repulsive:           17.507553

@<TRIPOS>MOLECULE
ZINC000845755710
 44 47 1 0 0
SMALL
USER_CHARGES


@<TRIPOS>ATOM
      1 C1        -12.9930    4.4969   51.1159 C.3     1  ZINC000845755710   -0.1700
      2 C2        -11.7867    4.2392   50.2107 C.3     1  ZINC000845755710    0.2600
      3 C3        -10.5405    4.0092   51.0681 C.3     1  ZINC000845755710   -0.0900
      4 C4        -10.7547    2.7845   51.9606 C.3     1  ZINC000845755710   -0.1300
      5 C5         -9.5190    2.5779   52.8421 C.3     1  ZINC000845755710    0.1100
      6 N6         -8.3317    2.4964   51.9805 N.am    1  ZINC000845755710   -0.6000
      7 C7         -7.4893    1.4480   52.0694 C.2     1  ZINC000845755710    0.5900
      8 O8         -7.7088    0.5575   52.8687 O.2     1  ZINC000845755710   -0.5200
      9 C9         -6.3049    1.3806   51.2002 C.2     1  ZINC000845755710   -0.2200
     10 C10        -6.0886    0.5159   50.1722 C.2     1  ZINC000845755710    0.0600
     11 O11        -4.8968    0.7608   49.6153 O.3     1  ZINC000845755710   -0.1800
     12 C12        -4.2675    1.7830   50.2315 C.ar    1  ZINC000845755710    0.0500
     13 C13        -3.0395    2.4009   50.0309 C.ar    1  ZINC000845755710   -0.0900
     14 C14        -2.6549    3.4490   50.8399 C.ar    1  ZINC000845755710   -0.0800
     15 C15        -3.4838    3.8970   51.8584 C.ar    1  ZINC000845755710   -0.0400
     16 Cl16       -2.9805    5.2180   52.8663 Cl      1  ZINC000845755710   -0.0600
     17 C17        -4.7073    3.2958   52.0721 C.ar    1  ZINC000845755710   -0.0500
     18 C18        -5.1065    2.2414   51.2578 C.ar    1  ZINC000845755710   -0.0900
     19 C19        -8.0804    3.5791   51.0198 C.3     1  ZINC000845755710    0.1000
     20 C20        -9.3322    3.7747   50.1586 C.3     1  ZINC000845755710   -0.1300
     21 O21       -12.0316    3.0786   49.3985 O.3     1  ZINC000845755710   -0.3700
     22 C22       -12.5386    3.6024   48.1476 C.3     1  ZINC000845755710    0.0100
     23 C23       -11.7124    4.9038   47.9935 C.3     1  ZINC000845755710    0.0200
     24 O24       -11.5789    5.3683   49.3519 O.3     1  ZINC000845755710   -0.3800
     25 H25       -13.8780    4.6658   50.5025 H       1  ZINC000845755710    0.0600
     26 H26       -13.1561    3.6319   51.7588 H       1  ZINC000845755710    0.0800
     27 H27       -12.8040    5.3766   51.7312 H       1  ZINC000845755710    0.0800
     28 H28       -10.3616    4.8855   51.6910 H       1  ZINC000845755710    0.0900
     29 H29       -11.6294    2.9427   52.5915 H       1  ZINC000845755710    0.0800
     30 H30       -10.9091    1.9032   51.3381 H       1  ZINC000845755710    0.0800
     31 H31        -9.4153    3.4180   53.5287 H       1  ZINC000845755710    0.0700
     32 H32        -9.6244    1.6520   53.4076 H       1  ZINC000845755710    0.1000
     33 H33        -6.7761   -0.2536   49.8535 H       1  ZINC000845755710    0.2200
     34 H34        -2.3859    2.0599   49.2416 H       1  ZINC000845755710    0.1500
     35 H35        -1.6992    3.9256   50.6796 H       1  ZINC000845755710    0.1500
     36 H36        -5.3527    3.6443   52.8648 H       1  ZINC000845755710    0.1400
     37 H37        -7.8594    4.5010   51.5577 H       1  ZINC000845755710    0.0800
     38 H38        -7.2365    3.3140   50.3828 H       1  ZINC000845755710    0.0900
     39 H39        -9.4999    2.8840   49.5531 H       1  ZINC000845755710    0.0700
     40 H40        -9.1944    4.6374   49.5070 H       1  ZINC000845755710    0.0800
     41 H41       -12.3387    2.9138   47.3266 H       1  ZINC000845755710    0.1100
     42 H42       -13.6037    3.8226   48.2197 H       1  ZINC000845755710    0.0800
     43 H43       -10.7346    4.6904   47.5614 H       1  ZINC000845755710    0.0800
     44 H44       -12.2513    5.6328   47.3883 H       1  ZINC000845755710    0.1000
@<TRIPOS>BOND
     1     1     2    1
     2     1    25    1
     3     1    26    1
     4     1    27    1
     5     2    24    1
     6     2     3    1
     7     2    21    1
     8     3    20    1
     9     3     4    1
    10     3    28    1
    11     4     5    1
    12     4    29    1
    13     4    30    1
    14     5     6    1
    15     5    31    1
    16     5    32    1
    17     6     7   am
    18     6    19    1
    19     7     8    2
    20     7     9    1
    21     9    18    1
    22     9    10    2
    23    10    11    1
    24    10    33    1
    25    11    12    1
    26    12    18   ar
    27    12    13   ar
    28    13    14   ar
    29    13    34    1
    30    14    15   ar
    31    14    35    1
    32    15    16    1
    33    15    17   ar
    34    17    18   ar
    35    17    36    1
    36    19    20    1
    37    19    37    1
    38    19    38    1
    39    20    39    1
    40    20    40    1
    41    21    22    1
    42    22    23    1
    43    22    41    1
    44    22    42    1
    45    23    24    1
    46    23    43    1
    47    23    44    1
@<TRIPOS>SUBSTRUCTURE
     1 ZINC000845755710        1 TEMP              0 ****  ****    0 ROOT


##########                                Name:    ZINC000656860804
##########                DOCK_Rotatable_Bonds:                   2
##########                         Heavy_Atoms:                  19
##########                    Molecular_Weight:             388.068
##########                DOCK_Rotatable_Bonds:                   2
##########                       Formal_Charge:          8.9407e-08
##########                     HBond_Acceptors:                   8
##########                        HBond_Donors:                   1
##########                         Heavy_Atoms:                  19
##########                          Grid_Score:          -28.654202
##########                     Grid_vdw_energy:          -28.332157
##########                      Grid_es_energy:           -0.322045
##########           Internal_energy_repulsive:           12.883383

@<TRIPOS>MOLECULE
ZINC000656860804
 28 29 1 0 0
SMALL
USER_CHARGES


@<TRIPOS>ATOM
      1 O1        -11.5473   -2.7262   53.6104 O.2     1  ZINC000656860804   -0.5400
      2 C2        -12.1405   -3.3490   54.4655 C.2     1  ZINC000656860804    0.5100
      3 C3        -11.8447   -3.0460   55.9091 C.3     1  ZINC000656860804    0.1100
      4 N4        -12.8724   -3.6793   56.7488 N.am    1  ZINC000656860804   -1.0000
      5 S5        -13.5465   -2.8819   58.0341 S.o2    1  ZINC000656860804    2.6900
      6 O6        -14.0299   -1.6445   57.5299 O.2     1  ZINC000656860804   -0.9200
      7 O7        -14.3729   -3.8249   58.7027 O.2     1  ZINC000656860804   -0.9300
      8 C8        -12.2390   -2.4886   59.1478 C.ar    1  ZINC000656860804   -0.6500
      9 C9        -10.9997   -3.0805   58.9946 C.ar    1  ZINC000656860804    0.0100
     10 C10        -9.9727   -2.7721   59.8688 C.ar    1  ZINC000656860804   -0.0400
     11 Cl11       -8.4157   -3.5153   59.6760 Cl      1  ZINC000656860804   -0.0200
     12 C12       -10.1869   -1.8701   60.8971 C.ar    1  ZINC000656860804    0.0200
     13 Cl13       -8.8986   -1.4820   61.9941 Cl      1  ZINC000656860804   -0.0100
     14 C14       -11.4277   -1.2779   61.0497 C.ar    1  ZINC000656860804   -0.0900
     15 C15       -12.4518   -1.5828   60.1718 C.ar    1  ZINC000656860804    0.0100
     16 Br16      -14.1480   -0.7735   60.3804 Br      1  ZINC000656860804    0.0100
     17 C17       -13.2782   -5.0513   56.3999 C.3     1  ZINC000656860804    0.0900
     18 C18       -13.8743   -5.0294   54.9911 C.3     1  ZINC000656860804    0.0800
     19 N19       -13.0290   -4.2672   54.0828 N.am    1  ZINC000656860804   -0.7100
     20 H20       -10.8637   -3.4422   56.1716 H       1  ZINC000656860804    0.1200
     21 H21       -11.8586   -1.9675   56.0661 H       1  ZINC000656860804    0.1200
     22 H22       -10.8330   -3.7844   58.1926 H       1  ZINC000656860804    0.1700
     23 H23       -11.5954   -0.5746   61.8519 H       1  ZINC000656860804    0.1700
     24 H24       -12.4090   -5.7087   56.4213 H       1  ZINC000656860804    0.1000
     25 H25       -14.0254   -5.4057   57.1100 H       1  ZINC000656860804    0.1200
     26 H26       -13.9676   -6.0519   54.6251 H       1  ZINC000656860804    0.1000
     27 H27       -14.8622   -4.5703   55.0267 H       1  ZINC000656860804    0.0800
     28 H28       -13.1135   -4.4439   53.1328 H       1  ZINC000656860804    0.4000
@<TRIPOS>BOND
     1     1     2    2
     2     2    19   am
     3     2     3    1
     4     3     4    1
     5     3    20    1
     6     3    21    1
     7     4     5   am
     8     4    17    1
     9     5     6    2
    10     5     7    2
    11     5     8    1
    12     8    15   ar
    13     8     9   ar
    14     9    10   ar
    15     9    22    1
    16    10    11    1
    17    10    12   ar
    18    12    13    1
    19    12    14   ar
    20    14    15   ar
    21    14    23    1
    22    15    16    1
    23    17    18    1
    24    17    24    1
    25    17    25    1
    26    18    19    1
    27    18    26    1
    28    18    27    1
    29    19    28    1
@<TRIPOS>SUBSTRUCTURE
     1 ZINC000656860804        1 TEMP              0 ****  ****    0 ROOT


##########                                Name:    ZINC000345028113
##########                DOCK_Rotatable_Bonds:                   5
##########                         Heavy_Atoms:                  21
##########                    Molecular_Weight:             331.838
##########                DOCK_Rotatable_Bonds:                   5
##########                       Formal_Charge:         4.47035e-07
##########                     HBond_Acceptors:                   6
##########                        HBond_Donors:                   0
##########                         Heavy_Atoms:                  21
##########                          Grid_Score:          -28.646198
##########                     Grid_vdw_energy:          -28.071318
##########                      Grid_es_energy:           -0.574881
##########           Internal_energy_repulsive:           12.761823

@<TRIPOS>MOLECULE
ZINC000345028113
 40 41 1 0 0
SMALL
USER_CHARGES


@<TRIPOS>ATOM
      1 C1          1.4320    4.6534   49.3257 C.3     1  ZINC000345028113   -0.1700
      2 C2          0.5632    4.2789   50.5282 C.3     1  ZINC000345028113    0.1400
      3 H3          0.0691    5.1718   50.9114 H       1  ZINC000345028113    0.1100
      4 C4          1.4441    3.6719   51.6254 C.3     1  ZINC000345028113   -0.0700
      5 H5          0.8331    3.4395   52.4976 H       1  ZINC000345028113    0.0900
      6 C6          2.5370    4.6689   52.0157 C.3     1  ZINC000345028113   -0.1400
      7 S7          2.2037    2.1480   50.9902 S.3     1  ZINC000345028113   -0.2400
      8 C8          0.7580    1.1960   50.4367 C.3     1  ZINC000345028113   -0.1100
      9 C9         -0.0534    2.0536   49.4598 C.3     1  ZINC000345028113    0.1000
     10 N10        -0.4458    3.3020   50.1158 N.am    1  ZINC000345028113   -0.6100
     11 C11        -1.7501    3.5546   50.3425 C.2     1  ZINC000345028113    0.5200
     12 O12        -2.0822    4.5862   50.8869 O.2     1  ZINC000345028113   -0.5300
     13 C13        -2.7958    2.5552   49.9196 C.3     1  ZINC000345028113   -0.1400
     14 C14        -4.1382    2.9216   50.5557 C.3     1  ZINC000345028113    0.0700
     15 O15        -5.1242    1.9600   50.1745 O.3     1  ZINC000345028113   -0.3000
     16 C16        -6.0448    1.6144   51.1136 C.ar    1  ZINC000345028113    0.1300
     17 C17        -6.5657    2.5788   51.9626 C.ar    1  ZINC000345028113   -0.1700
     18 C18        -7.5018    2.2264   52.9163 C.ar    1  ZINC000345028113   -0.1100
     19 C19        -7.9198    0.9113   53.0246 C.ar    1  ZINC000345028113    0.0800
     20 F20        -8.8353    0.5688   53.9572 F       1  ZINC000345028113   -0.1300
     21 C21        -7.4009   -0.0537   52.1776 C.ar    1  ZINC000345028113   -0.1100
     22 C22        -6.4685    0.2966   51.2193 C.ar    1  ZINC000345028113   -0.0400
     23 Cl23       -5.8180   -0.9129   50.1574 Cl      1  ZINC000345028113   -0.0400
     24 H24         0.8054    5.0852   48.5452 H       1  ZINC000345028113    0.0600
     25 H25         2.1832    5.3809   49.6327 H       1  ZINC000345028113    0.0800
     26 H26         1.9261    3.7606   48.9424 H       1  ZINC000345028113    0.0800
     27 H27         2.0774    5.5854   52.3858 H       1  ZINC000345028113    0.0800
     28 H28         3.1624    4.2353   52.7962 H       1  ZINC000345028113    0.0700
     29 H29         3.1498    4.8963   51.1434 H       1  ZINC000345028113    0.0700
     30 H30         1.0894    0.2864   49.9357 H       1  ZINC000345028113    0.1200
     31 H31         0.1397    0.9375   51.2964 H       1  ZINC000345028113    0.0900
     32 H32         0.5540    2.2792   48.5834 H       1  ZINC000345028113    0.0900
     33 H33        -0.9460    1.5086   49.1527 H       1  ZINC000345028113    0.1000
     34 H34        -2.8927    2.5681   48.8339 H       1  ZINC000345028113    0.1100
     35 H35        -2.4990    1.5585   50.2460 H       1  ZINC000345028113    0.1100
     36 H36        -4.0365    2.9270   51.6410 H       1  ZINC000345028113    0.0800
     37 H37        -4.4442    3.9105   50.2145 H       1  ZINC000345028113    0.0800
     38 H38        -6.2398    3.6050   51.8790 H       1  ZINC000345028113    0.1500
     39 H39        -7.9072    2.9777   53.5779 H       1  ZINC000345028113    0.1500
     40 H40        -7.7278   -1.0795   52.2634 H       1  ZINC000345028113    0.1500
@<TRIPOS>BOND
     1     1     2    1
     2     1    24    1
     3     1    25    1
     4     1    26    1
     5     2     3    1
     6     2    10    1
     7     2     4    1
     8     4     5    1
     9     4     6    1
    10     4     7    1
    11     6    27    1
    12     6    28    1
    13     6    29    1
    14     7     8    1
    15     8     9    1
    16     8    30    1
    17     8    31    1
    18     9    10    1
    19     9    32    1
    20     9    33    1
    21    10    11   am
    22    11    12    2
    23    11    13    1
    24    13    14    1
    25    13    34    1
    26    13    35    1
    27    14    15    1
    28    14    36    1
    29    14    37    1
    30    15    16    1
    31    16    22   ar
    32    16    17   ar
    33    17    18   ar
    34    17    38    1
    35    18    19   ar
    36    18    39    1
    37    19    20    1
    38    19    21   ar
    39    21    22   ar
    40    21    40    1
    41    22    23    1
@<TRIPOS>SUBSTRUCTURE
     1 ZINC000345028113        1 TEMP              0 ****  ****    0 ROOT


##########                                Name:    ZINC000154446008
##########                DOCK_Rotatable_Bonds:                   5
##########                         Heavy_Atoms:                  24
##########                    Molecular_Weight:              349.41
##########                DOCK_Rotatable_Bonds:                   5
##########                       Formal_Charge:          -0.0199999
##########                     HBond_Acceptors:                   8
##########                        HBond_Donors:                   0
##########                         Heavy_Atoms:                  24
##########                          Grid_Score:          -28.633249
##########                     Grid_vdw_energy:          -28.424267
##########                      Grid_es_energy:           -0.208983
##########           Internal_energy_repulsive:           13.453924

@<TRIPOS>MOLECULE
ZINC000154446008
 43 45 1 0 0
SMALL
USER_CHARGES


@<TRIPOS>ATOM
      1 O1        -10.0563   -5.0228   58.0883 O.2     1  ZINC000154446008   -0.5000
      2 C2        -10.7986   -4.0584   58.1029 C.2     1  ZINC000154446008    0.5900
      3 C3        -11.7430   -3.8437   57.0026 C.2     1  ZINC000154446008   -0.2300
      4 C4        -12.9731   -4.4278   56.8884 C.2     1  ZINC000154446008   -0.0600
      5 C5        -13.6519   -4.0483   55.7548 C.2     1  ZINC000154446008   -0.0500
      6 C6        -13.0023   -3.1836   54.9668 C.2     1  ZINC000154446008   -0.2100
      7 N7        -13.5375   -2.6389   53.6987 N.pl3   1  ZINC000154446008    0.0500
      8 O8        -12.8645   -1.8722   53.0332 O.2     1  ZINC000154446008   -0.1300
      9 O9        -14.6507   -2.9573   53.3208 O.2     1  ZINC000154446008   -0.1500
     10 S10       -11.4777   -2.7873   55.6223 S.3     1  ZINC000154446008    0.3500
     11 N11       -10.7561   -3.1909   59.1336 N.am    1  ZINC000154446008   -0.6100
     12 C12        -9.8100   -3.3904   60.2404 C.3     1  ZINC000154446008    0.0800
     13 C13        -8.9631   -2.1212   60.3960 C.3     1  ZINC000154446008    0.0900
     14 N14        -9.8615   -0.9588   60.4328 N.am    1  ZINC000154446008   -0.6100
     15 C15        -9.8183   -0.0908   61.4630 C.2     1  ZINC000154446008    0.5500
     16 O16        -9.0308   -0.2660   62.3731 O.2     1  ZINC000154446008   -0.5300
     17 C17       -10.7235    1.0685   61.4866 C.2     1  ZINC000154446008   -0.1500
     18 C18       -10.4030    2.1197   60.7636 C.2     1  ZINC000154446008   -0.1100
     19 C19       -11.2274    3.3724   60.7006 C.3     1  ZINC000154446008   -0.1000
     20 C20       -12.6408    3.0994   61.2194 C.3     1  ZINC000154446008   -0.1200
     21 C21       -12.5333    2.3817   62.5705 C.3     1  ZINC000154446008   -0.1200
     22 C22       -11.9625    0.9811   62.3292 C.3     1  ZINC000154446008   -0.0700
     23 C23       -10.8075   -0.7593   59.3259 C.3     1  ZINC000154446008    0.1000
     24 C24       -11.6506   -2.0253   59.1676 C.3     1  ZINC000154446008    0.1000
     25 H25       -13.3721   -5.1187   57.6161 H       1  ZINC000154446008    0.1800
     26 H26       -14.6374   -4.4211   55.5174 H       1  ZINC000154446008    0.1800
     27 H27       -10.3602   -3.5783   61.1625 H       1  ZINC000154446008    0.0900
     28 H28        -9.1616   -4.2381   60.0192 H       1  ZINC000154446008    0.0900
     29 H29        -8.3935   -2.1729   61.3239 H       1  ZINC000154446008    0.1100
     30 H30        -8.2816   -2.0303   59.5501 H       1  ZINC000154446008    0.0800
     31 H31        -9.4938    2.0793   60.1820 H       1  ZINC000154446008    0.1100
     32 H32       -10.7604    4.1435   61.3132 H       1  ZINC000154446008    0.0900
     33 H33       -11.2819    3.7176   59.6681 H       1  ZINC000154446008    0.0800
     34 H34       -13.1726    4.0422   61.3468 H       1  ZINC000154446008    0.0700
     35 H35       -13.1753    2.4671   60.5103 H       1  ZINC000154446008    0.0700
     36 H36       -11.8713    2.9416   63.2309 H       1  ZINC000154446008    0.0700
     37 H37       -13.5222    2.3003   63.0216 H       1  ZINC000154446008    0.0700
     38 H38       -12.7086    0.3692   61.8223 H       1  ZINC000154446008    0.0800
     39 H39       -11.7122    0.5231   63.2861 H       1  ZINC000154446008    0.0700
     40 H40       -11.4559    0.0884   59.5471 H       1  ZINC000154446008    0.1100
     41 H41       -10.2574   -0.5714   58.4039 H       1  ZINC000154446008    0.0800
     42 H42       -12.2195   -1.9724   58.2395 H       1  ZINC000154446008    0.1100
     43 H43       -12.3325   -2.1188   60.0128 H       1  ZINC000154446008    0.0800
@<TRIPOS>BOND
     1     1     2    2
     2     2     3    1
     3     2    11   am
     4     3    10    1
     5     3     4    2
     6     4     5    1
     7     4    25    1
     8     5     6    2
     9     5    26    1
    10     6     7    1
    11     6    10    1
    12     7     8    2
    13     7     9    2
    14    11    24    1
    15    11    12    1
    16    12    13    1
    17    12    27    1
    18    12    28    1
    19    13    14    1
    20    13    29    1
    21    13    30    1
    22    14    15   am
    23    14    23    1
    24    15    16    2
    25    15    17    1
    26    17    22    1
    27    17    18    2
    28    18    19    1
    29    18    31    1
    30    19    20    1
    31    19    32    1
    32    19    33    1
    33    20    21    1
    34    20    34    1
    35    20    35    1
    36    21    22    1
    37    21    36    1
    38    21    37    1
    39    22    38    1
    40    22    39    1
    41    23    24    1
    42    23    40    1
    43    23    41    1
    44    24    42    1
    45    24    43    1
@<TRIPOS>SUBSTRUCTURE
     1 ZINC000154446008        1 TEMP              0 ****  ****    0 ROOT


##########                                Name:    ZINC000331626032
##########                DOCK_Rotatable_Bonds:                   5
##########                         Heavy_Atoms:                  25
##########                    Molecular_Weight:              339.44
##########                DOCK_Rotatable_Bonds:                   5
##########                       Formal_Charge:        -2.16067e-07
##########                     HBond_Acceptors:                   6
##########                        HBond_Donors:                   2
##########                         Heavy_Atoms:                  25
##########                          Grid_Score:          -28.612091
##########                     Grid_vdw_energy:          -27.723907
##########                      Grid_es_energy:           -0.888184
##########           Internal_energy_repulsive:           53.117973

@<TRIPOS>MOLECULE
ZINC000331626032
 50 52 1 0 0
SMALL
USER_CHARGES


@<TRIPOS>ATOM
      1 C1        -12.4952   -0.3760   55.3514 C.3     1  ZINC000331626032   -0.2000
      2 C2        -11.5211   -0.5945   54.1919 C.3     1  ZINC000331626032    0.0700
      3 H3        -10.8918   -1.4588   54.4041 H       1  ZINC000331626032    0.1100
      4 C4        -12.2970   -0.8375   52.9231 C.2     1  ZINC000331626032    0.5200
      5 O5        -12.4236   -1.9658   52.4964 O.2     1  ZINC000331626032   -0.5000
      6 N6        -12.8500    0.1988   52.2625 N.am    1  ZINC000331626032   -0.5800
      7 C7        -12.6970    1.5616   52.7777 C.3     1  ZINC000331626032    0.0800
      8 C8        -13.5705   -0.0269   51.0842 C.ar    1  ZINC000331626032    0.1400
      9 C9        -14.6890   -0.8499   51.0995 C.ar    1  ZINC000331626032   -0.1000
     10 C10       -15.3980   -1.0706   49.9349 C.ar    1  ZINC000331626032   -0.1100
     11 C11       -14.9948   -0.4737   48.7546 C.ar    1  ZINC000331626032   -0.1200
     12 C12       -13.8812    0.3459   48.7360 C.ar    1  ZINC000331626032   -0.1100
     13 C13       -13.1719    0.5761   49.8985 C.ar    1  ZINC000331626032   -0.1200
     14 N14       -10.6778    0.5973   54.0297 N.3     1  ZINC000331626032   -0.5100
     15 C15       -10.0895    1.0043   55.3121 C.3     1  ZINC000331626032    0.0500
     16 C16        -9.3392    2.3261   55.1341 C.3     1  ZINC000331626032   -0.1100
     17 C17        -8.2414    2.1466   54.0819 C.3     1  ZINC000331626032   -0.1100
     18 C18        -8.8751    1.6759   52.7699 C.3     1  ZINC000331626032   -0.0400
     19 H19        -9.5636    2.4379   52.4044 H       1  ZINC000331626032    0.1000
     20 C20        -7.7951    1.4408   51.7454 C.ar    1  ZINC000331626032    0.2300
     21 C21        -7.1942    2.5109   51.1017 C.ar    1  ZINC000331626032   -0.2900
     22 C22        -6.2050    2.2508   50.1660 C.ar    1  ZINC000331626032    0.1900
     23 N23        -5.8662    0.9968   49.9168 N.ar    1  ZINC000331626032   -0.5700
     24 C24        -6.4607   -0.0039   50.5501 C.ar    1  ZINC000331626032    0.5700
     25 N25        -6.0812   -1.3041   50.2652 N.pl3   1  ZINC000331626032   -0.8200
     26 N26        -7.4055    0.2108   51.4535 N.ar    1  ZINC000331626032   -0.5700
     27 C27        -9.6389    0.3730   53.0164 C.3     1  ZINC000331626032    0.0700
     28 H28       -13.1246    0.4882   55.1393 H       1  ZINC000331626032    0.0700
     29 H29       -13.1210   -1.2604   55.4718 H       1  ZINC000331626032    0.0800
     30 H30       -11.9340   -0.2003   56.2692 H       1  ZINC000331626032    0.0700
     31 H31       -11.7969    2.0101   52.3572 H       1  ZINC000331626032    0.0600
     32 H32       -13.5656    2.1566   52.4952 H       1  ZINC000331626032    0.0800
     33 H33       -12.6146    1.5321   53.8642 H       1  ZINC000331626032    0.0800
     34 H34       -15.0040   -1.3169   52.0210 H       1  ZINC000331626032    0.1200
     35 H35       -16.2679   -1.7106   49.9462 H       1  ZINC000331626032    0.1300
     36 H36       -15.5507   -0.6482   47.8452 H       1  ZINC000331626032    0.1300
     37 H37       -13.5684    0.8101   47.8124 H       1  ZINC000331626032    0.1300
     38 H38       -12.3022    1.2162   49.8834 H       1  ZINC000331626032    0.1200
     39 H39       -10.8812    1.1326   56.0504 H       1  ZINC000331626032    0.0900
     40 H40        -9.3958    0.2360   55.6536 H       1  ZINC000331626032    0.0300
     41 H41       -10.0350    3.0983   54.8060 H       1  ZINC000331626032    0.0800
     42 H42        -8.8896    2.6200   56.0826 H       1  ZINC000331626032    0.0700
     43 H43        -7.7326    3.0968   53.9205 H       1  ZINC000331626032    0.0700
     44 H44        -7.5239    1.4022   54.4274 H       1  ZINC000331626032    0.0700
     45 H45        -7.4904    3.5255   51.3240 H       1  ZINC000331626032    0.1400
     46 H46        -5.7171    3.0623   49.6465 H       1  ZINC000331626032    0.1700
     47 H47        -5.3876   -1.4741   49.6088 H       1  ZINC000331626032    0.4100
     48 H48        -6.5088   -2.0452   50.7220 H       1  ZINC000331626032    0.4100
     49 H49        -8.9473   -0.3924   53.3686 H       1  ZINC000331626032    0.0400
     50 H50       -10.1032    0.0427   52.0871 H       1  ZINC000331626032    0.0800
@<TRIPOS>BOND
     1     1     2    1
     2     1    28    1
     3     1    29    1
     4     1    30    1
     5     2     3    1
     6     2     4    1
     7     2    14    1
     8     4     5    2
     9     4     6   am
    10     6     7    1
    11     6     8    1
    12     7    31    1
    13     7    32    1
    14     7    33    1
    15     8    13   ar
    16     8     9   ar
    17     9    10   ar
    18     9    34    1
    19    10    11   ar
    20    10    35    1
    21    11    12   ar
    22    11    36    1
    23    12    13   ar
    24    12    37    1
    25    13    38    1
    26    14    27    1
    27    14    15    1
    28    15    16    1
    29    15    39    1
    30    15    40    1
    31    16    17    1
    32    16    41    1
    33    16    42    1
    34    17    18    1
    35    17    43    1
    36    17    44    1
    37    18    19    1
    38    18    20    1
    39    18    27    1
    40    20    26   ar
    41    20    21   ar
    42    21    22   ar
    43    21    45    1
    44    22    23   ar
    45    22    46    1
    46    23    24   ar
    47    24    25    1
    48    24    26   ar
    49    25    47    1
    50    25    48    1
    51    27    49    1
    52    27    50    1
@<TRIPOS>SUBSTRUCTURE
     1 ZINC000331626032        1 TEMP              0 ****  ****    0 ROOT


##########                                Name:    ZINC000444205493
##########                DOCK_Rotatable_Bonds:                   4
##########                         Heavy_Atoms:                  24
##########                    Molecular_Weight:             415.351
##########                DOCK_Rotatable_Bonds:                   4
##########                       Formal_Charge:         -0.00999995
##########                     HBond_Acceptors:                   6
##########                        HBond_Donors:                   1
##########                         Heavy_Atoms:                  24
##########                          Grid_Score:          -28.543470
##########                     Grid_vdw_energy:          -28.525692
##########                      Grid_es_energy:           -0.017778
##########           Internal_energy_repulsive:          140.138748

@<TRIPOS>MOLECULE
ZINC000444205493
 47 49 1 0 0
SMALL
USER_CHARGES


@<TRIPOS>ATOM
      1 C1        -14.7793   -1.1675   49.7450 C.3     1  ZINC000444205493   -0.1700
      2 C2        -14.7565   -1.7129   51.1496 C.2     1  ZINC000444205493    0.5100
      3 O3        -15.7882   -1.8078   51.7801 O.2     1  ZINC000444205493   -0.5100
      4 N4        -13.5896   -2.0951   51.7052 N.am    1  ZINC000444205493   -0.6800
      5 C5        -13.5684   -2.6017   53.0097 C.ar    1  ZINC000444205493    0.2300
      6 C6        -14.7586   -2.8324   53.6858 C.ar    1  ZINC000444205493   -0.1400
      7 C7        -14.7345   -3.3330   54.9732 C.ar    1  ZINC000444205493    0.0200
      8 C8        -13.5266   -3.6039   55.5890 C.ar    1  ZINC000444205493   -0.6900
      9 S9        -13.5007   -4.2417   57.2313 S.o2    1  ZINC000444205493    2.7100
     10 O10       -14.8045   -4.7458   57.4866 O.2     1  ZINC000444205493   -0.9500
     11 O11       -12.3264   -5.0352   57.3352 O.2     1  ZINC000444205493   -0.9500
     12 N12       -13.2881   -2.9560   58.2532 N.am    1  ZINC000444205493   -1.0100
     13 C13       -12.1341   -2.0371   58.2511 C.3     1  ZINC000444205493    0.1200
     14 C14       -12.6624   -0.7297   58.8970 C.3     1  ZINC000444205493   -0.1200
     15 C15       -13.6289   -1.2828   59.9621 C.3     1  ZINC000444205493   -0.0700
     16 C16       -12.8805   -1.6201   61.2559 C.3     1  ZINC000444205493   -0.1100
     17 C17       -13.1375   -0.3910   62.1669 C.3     1  ZINC000444205493   -0.1200
     18 C18       -14.5995   -0.0067   61.8247 C.3     1  ZINC000444205493   -0.1000
     19 H19       -15.2982   -0.6402   62.3711 H       1  ZINC000444205493    0.0700
     20 C20       -14.8540    1.4679   62.1433 C.3     1  ZINC000444205493   -0.1500
     21 C21       -14.7134   -0.2619   60.3046 C.3     1  ZINC000444205493   -0.1100
     22 C22       -14.2230   -2.5361   59.3111 C.3     1  ZINC000444205493    0.1300
     23 C23       -12.3387   -3.3758   54.9187 C.ar    1  ZINC000444205493    0.0300
     24 C24       -12.3558   -2.8803   53.6290 C.ar    1  ZINC000444205493   -0.1500
     25 Br25      -10.7312   -2.5686   52.7129 Br      1  ZINC000444205493   -0.0300
     26 H26       -15.8032   -0.9142   49.4701 H       1  ZINC000444205493    0.1000
     27 H27       -14.1572   -0.2739   49.6920 H       1  ZINC000444205493    0.1000
     28 H28       -14.3939   -1.9198   49.0568 H       1  ZINC000444205493    0.1000
     29 H29       -12.7644   -2.0191   51.2009 H       1  ZINC000444205493    0.4200
     30 H30       -15.7027   -2.6205   53.2059 H       1  ZINC000444205493    0.1600
     31 H31       -15.6604   -3.5126   55.4995 H       1  ZINC000444205493    0.1500
     32 H32       -11.3191   -2.4509   58.8452 H       1  ZINC000444205493    0.0800
     33 H33       -11.8020   -1.8482   57.2303 H       1  ZINC000444205493    0.0800
     34 H34       -11.8516   -0.1666   59.3593 H       1  ZINC000444205493    0.0900
     35 H35       -13.1933   -0.1194   58.1664 H       1  ZINC000444205493    0.0800
     36 H36       -13.2880   -2.5238   61.7089 H       1  ZINC000444205493    0.0700
     37 H37       -11.8142   -1.7358   61.0618 H       1  ZINC000444205493    0.0700
     38 H38       -13.0464   -0.6642   63.2182 H       1  ZINC000444205493    0.0700
     39 H39       -12.4564    0.4227   61.9182 H       1  ZINC000444205493    0.0700
     40 H40       -14.1603    2.0874   61.5749 H       1  ZINC000444205493    0.0500
     41 H41       -15.8777    1.7266   61.8728 H       1  ZINC000444205493    0.0500
     42 H42       -14.7054    1.6402   63.2093 H       1  ZINC000444205493    0.0500
     43 H43       -14.5434    0.6641   59.7553 H       1  ZINC000444205493    0.0700
     44 H44       -15.6971   -0.6655   60.0649 H       1  ZINC000444205493    0.0700
     45 H45       -15.1987   -2.3059   58.8830 H       1  ZINC000444205493    0.0700
     46 H46       -14.3193   -3.3300   60.0517 H       1  ZINC000444205493    0.0800
     47 H47       -11.3968   -3.5888   55.4023 H       1  ZINC000444205493    0.1500
@<TRIPOS>BOND
     1     1     2    1
     2     1    26    1
     3     1    27    1
     4     1    28    1
     5     2     3    2
     6     2     4   am
     7     4     5    1
     8     4    29    1
     9     5    24   ar
    10     5     6   ar
    11     6     7   ar
    12     6    30    1
    13     7     8   ar
    14     7    31    1
    15     8     9    1
    16     8    23   ar
    17     9    10    2
    18     9    11    2
    19     9    12   am
    20    12    22    1
    21    12    13    1
    22    13    14    1
    23    13    32    1
    24    13    33    1
    25    14    15    1
    26    14    34    1
    27    14    35    1
    28    15    21    1
    29    15    16    1
    30    15    22    1
    31    16    17    1
    32    16    36    1
    33    16    37    1
    34    17    18    1
    35    17    38    1
    36    17    39    1
    37    18    19    1
    38    18    20    1
    39    18    21    1
    40    20    40    1
    41    20    41    1
    42    20    42    1
    43    21    43    1
    44    21    44    1
    45    22    45    1
    46    22    46    1
    47    23    24   ar
    48    23    47    1
    49    24    25    1
@<TRIPOS>SUBSTRUCTURE
     1 ZINC000444205493        1 TEMP              0 ****  ****    0 ROOT


##########                                Name:    ZINC001179023006
##########                DOCK_Rotatable_Bonds:                   3
##########                         Heavy_Atoms:                  25
##########                    Molecular_Weight:             340.465
##########                DOCK_Rotatable_Bonds:                   3
##########                       Formal_Charge:          -0.0100005
##########                     HBond_Acceptors:                   4
##########                        HBond_Donors:                   1
##########                         Heavy_Atoms:                  25
##########                          Grid_Score:          -28.506271
##########                     Grid_vdw_energy:          -27.891439
##########                      Grid_es_energy:           -0.614832
##########           Internal_energy_repulsive:           55.689026

@<TRIPOS>MOLECULE
ZINC001179023006
 53 56 1 0 0
SMALL
USER_CHARGES


@<TRIPOS>ATOM
      1 C1         -9.3045   -1.5690   61.5480 C.3     1  ZINC001179023006   -0.1500
      2 C2        -10.3106   -2.1801   60.5708 C.3     1  ZINC001179023006   -0.1100
      3 C3        -11.4468   -1.1864   60.3208 C.3     1  ZINC001179023006   -0.1100
      4 C4        -12.5377   -1.7522   59.4487 C.2     1  ZINC001179023006    0.5400
      5 O5        -13.6345   -1.9736   59.9165 O.2     1  ZINC001179023006   -0.5400
      6 N6        -12.2948   -2.0120   58.1486 N.am    1  ZINC001179023006   -0.5900
      7 C7        -10.9735   -1.7437   57.5652 C.3     1  ZINC001179023006    0.1000
      8 C8        -11.1441   -0.8691   56.3253 C.3     1  ZINC001179023006   -0.1200
      9 C9        -12.1231   -1.5481   55.3564 C.3     1  ZINC001179023006   -0.0500
     10 C10       -13.4888   -1.6727   56.0480 C.3     1  ZINC001179023006   -0.1100
     11 C11       -13.3476   -2.5637   57.2851 C.3     1  ZINC001179023006    0.0900
     12 C12       -12.2741   -0.6828   54.1152 C.3     1  ZINC001179023006   -0.0800
     13 C13       -10.9536   -0.4264   53.4557 C.ar    1  ZINC001179023006   -0.0700
     14 C14       -10.3946    0.8434   53.5583 C.ar    1  ZINC001179023006   -0.1100
     15 C15        -9.1500    1.0944   53.0151 C.ar    1  ZINC001179023006   -0.1100
     16 C16        -8.4570    0.0889   52.3676 C.ar    1  ZINC001179023006   -0.1200
     17 C17        -9.0217   -1.1691   52.2547 C.ar    1  ZINC001179023006   -0.1000
     18 C18       -10.2732   -1.4059   52.7950 C.ar    1  ZINC001179023006   -0.1100
     19 C19       -10.9054   -2.7666   52.6501 C.3     1  ZINC001179023006    0.1400
     20 N20       -11.0897   -3.4079   53.9330 N.am    1  ZINC001179023006   -0.7000
     21 C21       -11.6157   -2.9160   55.0252 C.2     1  ZINC001179023006    0.5200
     22 O22       -11.7085   -3.7134   55.9342 O.2     1  ZINC001179023006   -0.5500
     23 C23       -10.9626    0.2042   59.8773 C.3     1  ZINC001179023006   -0.1200
     24 C24       -12.0610    0.7875   60.7847 C.3     1  ZINC001179023006   -0.1400
     25 C25       -11.9686   -0.5126   61.6008 C.3     1  ZINC001179023006   -0.1300
     26 H26        -8.4757   -2.2612   61.6964 H       1  ZINC001179023006    0.0600
     27 H27        -8.9262   -0.6312   61.1410 H       1  ZINC001179023006    0.0500
     28 H28        -9.7947   -1.3791   62.5029 H       1  ZINC001179023006    0.0600
     29 H29       -10.7175   -3.0980   60.9950 H       1  ZINC001179023006    0.0700
     30 H30        -9.8111   -2.4055   59.6286 H       1  ZINC001179023006    0.0700
     31 H31       -10.3510   -1.2244   58.2938 H       1  ZINC001179023006    0.0900
     32 H32       -10.5009   -2.6845   57.2829 H       1  ZINC001179023006    0.0800
     33 H33       -10.1793   -0.7377   55.8353 H       1  ZINC001179023006    0.0800
     34 H34       -11.5386    0.1035   56.6193 H       1  ZINC001179023006    0.0800
     35 H35       -14.2067   -2.1175   55.3590 H       1  ZINC001179023006    0.0800
     36 H36       -13.8370   -0.6846   56.3488 H       1  ZINC001179023006    0.0800
     37 H37       -13.0767   -3.5740   56.9787 H       1  ZINC001179023006    0.1200
     38 H38       -14.2919   -2.5858   57.8291 H       1  ZINC001179023006    0.0800
     39 H39       -12.9327   -1.1871   53.4081 H       1  ZINC001179023006    0.0800
     40 H40       -12.7212    0.2701   54.3981 H       1  ZINC001179023006    0.0900
     41 H41       -10.9332    1.6320   54.0627 H       1  ZINC001179023006    0.1200
     42 H42        -8.7167    2.0803   53.0961 H       1  ZINC001179023006    0.1200
     43 H43        -7.4795    0.2843   51.9522 H       1  ZINC001179023006    0.1300
     44 H44        -8.4895   -1.9606   51.7481 H       1  ZINC001179023006    0.1300
     45 H45       -10.2649   -3.3922   52.0284 H       1  ZINC001179023006    0.0900
     46 H46       -11.8750   -2.6585   52.1638 H       1  ZINC001179023006    0.0800
     47 H47       -10.7817   -4.3258   53.9917 H       1  ZINC001179023006    0.4000
     48 H48        -9.9515    0.4406   60.2086 H       1  ZINC001179023006    0.0900
     49 H49       -11.1193    0.4035   58.8172 H       1  ZINC001179023006    0.0800
     50 H50       -13.0181    0.9192   60.2800 H       1  ZINC001179023006    0.0800
     51 H51       -11.7488    1.6733   61.3378 H       1  ZINC001179023006    0.0700
     52 H52       -12.9364   -0.8911   61.9301 H       1  ZINC001179023006    0.0700
     53 H53       -11.2331   -0.4725   62.4042 H       1  ZINC001179023006    0.0900
@<TRIPOS>BOND
     1     1     2    1
     2     1    26    1
     3     1    27    1
     4     1    28    1
     5     2     3    1
     6     2    29    1
     7     2    30    1
     8     3    25    1
     9     3     4    1
    10     3    23    1
    11     4     5    2
    12     4     6   am
    13     6    11    1
    14     6     7    1
    15     7     8    1
    16     7    31    1
    17     7    32    1
    18     8     9    1
    19     8    33    1
    20     8    34    1
    21     9    21    1
    22     9    10    1
    23     9    12    1
    24    10    11    1
    25    10    35    1
    26    10    36    1
    27    11    37    1
    28    11    38    1
    29    12    13    1
    30    12    39    1
    31    12    40    1
    32    13    18   ar
    33    13    14   ar
    34    14    15   ar
    35    14    41    1
    36    15    16   ar
    37    15    42    1
    38    16    17   ar
    39    16    43    1
    40    17    18   ar
    41    17    44    1
    42    18    19    1
    43    19    20    1
    44    19    45    1
    45    19    46    1
    46    20    21   am
    47    20    47    1
    48    21    22    2
    49    23    24    1
    50    23    48    1
    51    23    49    1
    52    24    25    1
    53    24    50    1
    54    24    51    1
    55    25    52    1
    56    25    53    1
@<TRIPOS>SUBSTRUCTURE
     1 ZINC001179023006        1 TEMP              0 ****  ****    0 ROOT


##########                                Name:    ZINC000482962466
##########                DOCK_Rotatable_Bonds:                   2
##########                         Heavy_Atoms:                  25
##########                    Molecular_Weight:             404.303
##########                DOCK_Rotatable_Bonds:                   2
##########                       Formal_Charge:           0.0200002
##########                     HBond_Acceptors:                   4
##########                        HBond_Donors:                   0
##########                         Heavy_Atoms:                  25
##########                          Grid_Score:          -28.452169
##########                     Grid_vdw_energy:          -27.226732
##########                      Grid_es_energy:           -1.225437
##########           Internal_energy_repulsive:            9.695609

@<TRIPOS>MOLECULE
ZINC000482962466
 47 50 1 0 0
SMALL
USER_CHARGES


@<TRIPOS>ATOM
      1 C1        -14.1822   -1.3757   60.0462 C.3     1  ZINC000482962466   -0.1400
      2 C2        -12.9623   -0.9842   59.2097 C.3     1  ZINC000482962466    0.0700
      3 H3        -12.4568   -0.1390   59.6766 H       1  ZINC000482962466    0.0700
      4 C4        -13.4134   -0.5947   57.7974 C.3     1  ZINC000482962466    0.0800
      5 N5        -12.2166   -0.4044   56.9628 N.am    1  ZINC000482962466   -0.6100
      6 C6        -12.0554    0.7118   56.2248 C.2     1  ZINC000482962466    0.5600
      7 O7        -12.9062    1.5800   56.2422 O.2     1  ZINC000482962466   -0.5200
      8 C8        -10.8449    0.8802   55.3944 C.ar    1  ZINC000482962466   -0.1100
      9 C9         -9.9968    1.9804   55.6125 C.ar    1  ZINC000482962466   -0.0700
     10 C10        -8.8789    2.1568   54.8629 C.ar    1  ZINC000482962466   -0.1000
     11 C11        -8.5558    1.2327   53.8525 C.ar    1  ZINC000482962466   -0.0400
     12 C12        -7.4046    1.3942   53.0643 C.ar    1  ZINC000482962466   -0.0700
     13 C13        -7.1175    0.4826   52.0934 C.ar    1  ZINC000482962466   -0.0800
     14 Br14       -5.5657    0.7056   51.0361 Br      1  ZINC000482962466   -0.0400
     15 C15        -7.9507   -0.6128   51.8678 C.ar    1  ZINC000482962466   -0.1000
     16 C16        -9.0745   -0.8018   52.6112 C.ar    1  ZINC000482962466   -0.0900
     17 C17        -9.4032    0.1185   53.6232 C.ar    1  ZINC000482962466   -0.0500
     18 C18       -10.5510   -0.0502   54.4110 C.ar    1  ZINC000482962466   -0.0700
     19 C19       -11.2008   -1.4694   56.9576 C.3     1  ZINC000482962466    0.0700
     20 C20       -10.8595   -1.8182   58.4097 C.3     1  ZINC000482962466    0.0800
     21 C21        -9.9525   -3.0509   58.4388 C.3     1  ZINC000482962466   -0.1100
     22 C22        -9.5525   -3.3426   59.8886 C.3     1  ZINC000482962466   -0.1500
     23 C23        -8.8742   -2.1047   60.4813 C.3     1  ZINC000482962466    0.0600
     24 O24        -9.7622   -0.9884   60.3956 O.3     1  ZINC000482962466   -0.3700
     25 C25       -10.1328   -0.6393   59.0602 C.3     1  ZINC000482962466    0.0400
     26 O26       -12.0632   -2.0930   59.1285 O.3     1  ZINC000482962466   -0.3500
     27 H27       -13.8604   -1.6543   61.0495 H       1  ZINC000482962466    0.0700
     28 H28       -14.8680   -0.5306   60.1061 H       1  ZINC000482962466    0.0800
     29 H29       -14.6872   -2.2210   59.5787 H       1  ZINC000482962466    0.0700
     30 H30       -14.0313   -1.3885   57.3774 H       1  ZINC000482962466    0.0800
     31 H31       -13.9843    0.3331   57.8373 H       1  ZINC000482962466    0.1000
     32 H32       -10.2381    2.6945   56.3860 H       1  ZINC000482962466    0.1400
     33 H33        -8.2375    3.0071   55.0419 H       1  ZINC000482962466    0.1400
     34 H34        -6.7499    2.2377   53.2269 H       1  ZINC000482962466    0.1400
     35 H35        -7.7004   -1.3211   51.0919 H       1  ZINC000482962466    0.1400
     36 H36        -9.7110   -1.6542   52.4252 H       1  ZINC000482962466    0.1400
     37 H37       -11.2028   -0.8961   54.2495 H       1  ZINC000482962466    0.1400
     38 H38       -11.5952   -2.3505   56.4513 H       1  ZINC000482962466    0.0900
     39 H39       -10.3053   -1.1202   56.4436 H       1  ZINC000482962466    0.1000
     40 H40       -10.4877   -3.9073   58.0288 H       1  ZINC000482962466    0.0800
     41 H41        -9.0584   -2.8598   57.8453 H       1  ZINC000482962466    0.0800
     42 H42       -10.4421   -3.5841   60.4703 H       1  ZINC000482962466    0.0800
     43 H43        -8.8603   -4.1842   59.9133 H       1  ZINC000482962466    0.0800
     44 H44        -8.6254   -2.2918   61.5259 H       1  ZINC000482962466    0.1000
     45 H45        -7.9630   -1.8878   59.9239 H       1  ZINC000482962466    0.0500
     46 H46        -9.2381   -0.4016   58.4848 H       1  ZINC000482962466    0.0600
     47 H47       -10.7929    0.2279   59.0810 H       1  ZINC000482962466    0.1000
@<TRIPOS>BOND
     1     1     2    1
     2     1    27    1
     3     1    28    1
     4     1    29    1
     5     2     3    1
     6     2    26    1
     7     2     4    1
     8     4     5    1
     9     4    30    1
    10     4    31    1
    11     5     6   am
    12     5    19    1
    13     6     7    2
    14     6     8    1
    15     8    18   ar
    16     8     9   ar
    17     9    10   ar
    18     9    32    1
    19    10    11   ar
    20    10    33    1
    21    11    17   ar
    22    11    12   ar
    23    12    13   ar
    24    12    34    1
    25    13    14    1
    26    13    15   ar
    27    15    16   ar
    28    15    35    1
    29    16    17   ar
    30    16    36    1
    31    17    18   ar
    32    18    37    1
    33    19    20    1
    34    19    38    1
    35    19    39    1
    36    20    25    1
    37    20    21    1
    38    20    26    1
    39    21    22    1
    40    21    40    1
    41    21    41    1
    42    22    23    1
    43    22    42    1
    44    22    43    1
    45    23    24    1
    46    23    44    1
    47    23    45    1
    48    24    25    1
    49    25    46    1
    50    25    47    1
@<TRIPOS>SUBSTRUCTURE
     1 ZINC000482962466        1 TEMP              0 ****  ****    0 ROOT


##########                                Name:    ZINC000840649129
##########                DOCK_Rotatable_Bonds:                   8
##########                         Heavy_Atoms:                  26
##########                    Molecular_Weight:             376.839
##########                DOCK_Rotatable_Bonds:                   8
##########                       Formal_Charge:          -0.0199998
##########                     HBond_Acceptors:                   7
##########                        HBond_Donors:                   3
##########                         Heavy_Atoms:                  26
##########                          Grid_Score:          -28.425692
##########                     Grid_vdw_energy:          -26.398766
##########                      Grid_es_energy:           -2.026927
##########           Internal_energy_repulsive:          163.204117

@<TRIPOS>MOLECULE
ZINC000840649129
 47 48 1 0 0
SMALL
USER_CHARGES


@<TRIPOS>ATOM
      1 C1        -13.1503   -4.8998   56.6679 C.3     1  ZINC000840649129    0.0200
      2 O2        -12.0078   -4.1719   56.2132 O.3     1  ZINC000840649129   -0.2900
      3 C3        -11.2102   -3.6205   57.1631 C.ar    1  ZINC000840649129    0.1400
      4 C4        -10.5235   -4.4338   58.0514 C.ar    1  ZINC000840649129   -0.1700
      5 C5         -9.7119   -3.8750   59.0182 C.ar    1  ZINC000840649129   -0.1200
      6 C6         -9.5761   -2.4937   59.1090 C.ar    1  ZINC000840649129    0.1700
      7 N7         -8.7509   -1.9365   60.0925 N.pl3   1  ZINC000840649129   -0.8800
      8 C8        -10.2548   -1.6690   58.2285 C.ar    1  ZINC000840649129   -0.1000
      9 C9        -11.0746   -2.2277   57.2446 C.ar    1  ZINC000840649129   -0.1200
     10 C10       -11.8004   -1.3564   56.3028 C.2     1  ZINC000840649129    0.5100
     11 O11       -12.6305   -0.5718   56.7174 O.2     1  ZINC000840649129   -0.4800
     12 O12       -11.5432   -1.4301   54.9821 O.3     1  ZINC000840649129   -0.3200
     13 C13       -11.5388   -0.1815   54.2408 C.3     1  ZINC000840649129    0.0800
     14 H14       -11.9755    0.6067   54.8540 H       1  ZINC000840649129    0.1200
     15 C15       -12.3476   -0.3433   52.9795 C.2     1  ZINC000840649129    0.5200
     16 O16       -12.1704   -1.3070   52.2648 O.2     1  ZINC000840649129   -0.4900
     17 N17       -13.2681    0.5829   52.6460 N.am    1  ZINC000840649129   -0.6600
     18 C18       -14.0195    0.4327   51.4745 C.ar    1  ZINC000840649129    0.1600
     19 C19       -13.8225   -0.6730   50.6588 C.ar    1  ZINC000840649129   -0.1400
     20 C20       -14.5659   -0.8188   49.5033 C.ar    1  ZINC000840649129   -0.0900
     21 C21       -15.5055    0.1350   49.1586 C.ar    1  ZINC000840649129   -0.1300
     22 C22       -15.7045    1.2385   49.9684 C.ar    1  ZINC000840649129   -0.0900
     23 C23       -14.9685    1.3875   51.1283 C.ar    1  ZINC000840649129   -0.0700
     24 Cl24      -15.2189    2.7724   52.1448 Cl      1  ZINC000840649129   -0.0700
     25 C25       -10.0997    0.1918   53.8793 C.3     1  ZINC000840649129   -0.1100
     26 C26       -10.1097    1.3251   52.8514 C.3     1  ZINC000840649129   -0.1600
     27 C27        -9.3606    0.6513   55.1377 C.3     1  ZINC000840649129   -0.1500
     28 H28       -13.6999   -5.2867   55.8097 H       1  ZINC000840649129    0.1000
     29 H29       -12.8261   -5.7296   57.2958 H       1  ZINC000840649129    0.0600
     30 H30       -13.7965   -4.2383   57.2449 H       1  ZINC000840649129    0.0600
     31 H31       -10.6240   -5.5071   57.9870 H       1  ZINC000840649129    0.1400
     32 H32        -9.1799   -4.5137   59.7078 H       1  ZINC000840649129    0.1300
     33 H33        -8.2745   -2.5134   60.7099 H       1  ZINC000840649129    0.4000
     34 H34        -8.6554   -0.9734   60.1569 H       1  ZINC000840649129    0.4000
     35 H35       -10.1482   -0.5966   58.2997 H       1  ZINC000840649129    0.1400
     36 H36       -13.4100    1.3536   53.2176 H       1  ZINC000840649129    0.4200
     37 H37       -13.0886   -1.4186   50.9269 H       1  ZINC000840649129    0.1700
     38 H38       -14.4126   -1.6789   48.8684 H       1  ZINC000840649129    0.1300
     39 H39       -16.0851    0.0183   48.2549 H       1  ZINC000840649129    0.1300
     40 H40       -16.4390    1.9820   49.6962 H       1  ZINC000840649129    0.1400
     41 H41        -9.5940   -0.6768   53.4576 H       1  ZINC000840649129    0.0900
     42 H42       -10.7230    2.1465   53.2220 H       1  ZINC000840649129    0.0700
     43 H43        -9.0910    1.6770   52.6886 H       1  ZINC000840649129    0.0800
     44 H44       -10.5223    0.9591   51.9112 H       1  ZINC000840649129    0.0600
     45 H45        -9.3534   -0.1560   55.8700 H       1  ZINC000840649129    0.0500
     46 H46        -8.3354    0.9173   54.8801 H       1  ZINC000840649129    0.0600
     47 H47        -9.8663    1.5199   55.5594 H       1  ZINC000840649129    0.0700
@<TRIPOS>BOND
     1     1     2    1
     2     1    28    1
     3     1    29    1
     4     1    30    1
     5     2     3    1
     6     3     9   ar
     7     3     4   ar
     8     4     5   ar
     9     4    31    1
    10     5     6   ar
    11     5    32    1
    12     6     7    1
    13     6     8   ar
    14     7    33    1
    15     7    34    1
    16     8     9   ar
    17     8    35    1
    18     9    10    1
    19    10    11    2
    20    10    12    1
    21    12    13    1
    22    13    14    1
    23    13    15    1
    24    13    25    1
    25    15    16    2
    26    15    17   am
    27    17    18    1
    28    17    36    1
    29    18    23   ar
    30    18    19   ar
    31    19    20   ar
    32    19    37    1
    33    20    21   ar
    34    20    38    1
    35    21    22   ar
    36    21    39    1
    37    22    23   ar
    38    22    40    1
    39    23    24    1
    40    25    26    1
    41    25    27    1
    42    25    41    1
    43    26    42    1
    44    26    43    1
    45    26    44    1
    46    27    45    1
    47    27    46    1
    48    27    47    1
@<TRIPOS>SUBSTRUCTURE
     1 ZINC000840649129        1 TEMP              0 ****  ****    0 ROOT


##########                                Name:    ZINC000854500114
##########                DOCK_Rotatable_Bonds:                   7
##########                         Heavy_Atoms:                  24
##########                    Molecular_Weight:             399.288
##########                DOCK_Rotatable_Bonds:                   7
##########                       Formal_Charge:          -0.0399992
##########                     HBond_Acceptors:                   7
##########                        HBond_Donors:                   2
##########                         Heavy_Atoms:                  24
##########                          Grid_Score:          -28.424156
##########                     Grid_vdw_energy:          -26.926823
##########                      Grid_es_energy:           -1.497334
##########           Internal_energy_repulsive:           78.011940

@<TRIPOS>MOLECULE
ZINC000854500114
 47 49 1 0 0
SMALL
USER_CHARGES


@<TRIPOS>ATOM
      1 O1         -0.2446    4.7232   53.6776 O.2     1  ZINC000854500114   -0.5800
      2 C2         -1.4178    4.4292   53.7946 C.2     1  ZINC000854500114    0.6600
      3 N3         -1.8383    3.7555   54.8836 N.am    1  ZINC000854500114   -0.7100
      4 C4         -0.8799    3.3725   55.9234 C.3     1  ZINC000854500114    0.1600
      5 C5         -0.8374    4.4507   57.0258 C.3     1  ZINC000854500114   -0.1400
      6 C6         -1.8111    3.9246   58.1094 C.3     1  ZINC000854500114   -0.1300
      7 C7         -1.5481    2.3983   58.0931 C.3     1  ZINC000854500114   -0.1300
      8 C8         -1.3319    2.0676   56.6020 C.3     1  ZINC000854500114   -0.1300
      9 O9         -2.2986    4.7812   52.8391 O.3     1  ZINC000854500114   -0.3600
     10 C10        -3.6426    4.2435   52.9513 C.3     1  ZINC000854500114    0.1000
     11 C11        -3.7209    2.9075   52.2097 C.3     1  ZINC000854500114    0.1500
     12 H12        -3.0989    2.1706   52.7175 H       1  ZINC000854500114    0.0900
     13 C13        -3.2297    3.0896   50.7701 C.3     1  ZINC000854500114   -0.1300
     14 C14        -3.4404    1.7871   49.9947 C.3     1  ZINC000854500114   -0.1200
     15 C15        -4.9326    1.4497   49.9568 C.3     1  ZINC000854500114   -0.1400
     16 C16        -5.4432    1.2490   51.3871 C.3     1  ZINC000854500114    0.0900
     17 N17        -5.1138    2.4407   52.1815 N.am    1  ZINC000854500114   -0.6100
     18 C18        -6.0720    3.0956   52.8668 C.2     1  ZINC000854500114    0.5900
     19 O19        -5.7865    4.0807   53.5206 O.2     1  ZINC000854500114   -0.4900
     20 C20        -7.4635    2.6187   52.8239 C.2     1  ZINC000854500114   -0.0300
     21 C21        -8.5066    3.1649   52.0964 C.2     1  ZINC000854500114   -0.1200
     22 C22        -9.6164    2.3658   52.3839 C.2     1  ZINC000854500114    0.0200
     23 Br23      -11.3620    2.5940   51.6932 Br      1  ZINC000854500114    0.0400
     24 N24        -9.2328    1.4309   53.2161 N.2     1  ZINC000854500114   -0.2400
     25 N25        -7.9830    1.5450   53.4895 N.pl3   1  ZINC000854500114   -0.3700
     26 H26        -2.7755    3.5242   54.9789 H       1  ZINC000854500114    0.4000
     27 H27         0.1110    3.2432   55.4880 H       1  ZINC000854500114    0.0900
     28 H28         0.1705    4.5426   57.4307 H       1  ZINC000854500114    0.0800
     29 H29        -1.1818    5.4086   56.6361 H       1  ZINC000854500114    0.0700
     30 H30        -1.5692    4.3479   59.0844 H       1  ZINC000854500114    0.0700
     31 H31        -2.8442    4.1416   57.8385 H       1  ZINC000854500114    0.0700
     32 H32        -0.6552    2.1588   58.6704 H       1  ZINC000854500114    0.0700
     33 H33        -2.4114    1.8584   58.4823 H       1  ZINC000854500114    0.0700
     34 H34        -2.2643    1.7191   56.1577 H       1  ZINC000854500114    0.0700
     35 H35        -0.5599    1.3052   56.4967 H       1  ZINC000854500114    0.0800
     36 H36        -3.8862    4.0903   54.0026 H       1  ZINC000854500114    0.1000
     37 H37        -4.3523    4.9447   52.5124 H       1  ZINC000854500114    0.0700
     38 H38        -3.7918    3.8922   50.2927 H       1  ZINC000854500114    0.0800
     39 H39        -2.1692    3.3416   50.7767 H       1  ZINC000854500114    0.0900
     40 H40        -3.0690    1.9062   48.9770 H       1  ZINC000854500114    0.0800
     41 H41        -2.8980    0.9798   50.4868 H       1  ZINC000854500114    0.0700
     42 H42        -5.4788    2.2677   49.4870 H       1  ZINC000854500114    0.0700
     43 H43        -5.0843    0.5345   49.3845 H       1  ZINC000854500114    0.0800
     44 H44        -6.5238    1.1064   51.3727 H       1  ZINC000854500114    0.0800
     45 H45        -4.9631    0.3750   51.8271 H       1  ZINC000854500114    0.0800
     46 H46        -8.4705    4.0257   51.4452 H       1  ZINC000854500114    0.1700
     47 H47        -7.4853    0.9613   54.0832 H       1  ZINC000854500114    0.4500
@<TRIPOS>BOND
     1     1     2    2
     2     2     3   am
     3     2     9    1
     4     3     4    1
     5     3    26    1
     6     4     8    1
     7     4     5    1
     8     4    27    1
     9     5     6    1
    10     5    28    1
    11     5    29    1
    12     6     7    1
    13     6    30    1
    14     6    31    1
    15     7     8    1
    16     7    32    1
    17     7    33    1
    18     8    34    1
    19     8    35    1
    20     9    10    1
    21    10    11    1
    22    10    36    1
    23    10    37    1
    24    11    12    1
    25    11    17    1
    26    11    13    1
    27    13    14    1
    28    13    38    1
    29    13    39    1
    30    14    15    1
    31    14    40    1
    32    14    41    1
    33    15    16    1
    34    15    42    1
    35    15    43    1
    36    16    17    1
    37    16    44    1
    38    16    45    1
    39    17    18   am
    40    18    19    2
    41    18    20    1
    42    20    25    1
    43    20    21    2
    44    21    22    1
    45    21    46    1
    46    22    23    1
    47    22    24    2
    48    24    25    1
    49    25    47    1
@<TRIPOS>SUBSTRUCTURE
     1 ZINC000854500114        1 TEMP              0 ****  ****    0 ROOT


##########                                Name:    ZINC000866034032
##########                DOCK_Rotatable_Bonds:                   4
##########                         Heavy_Atoms:                  23
##########                    Molecular_Weight:             383.242
##########                DOCK_Rotatable_Bonds:                   4
##########                       Formal_Charge:           0.0199999
##########                     HBond_Acceptors:                   6
##########                        HBond_Donors:                   1
##########                         Heavy_Atoms:                  23
##########                          Grid_Score:          -28.418491
##########                     Grid_vdw_energy:          -27.631207
##########                      Grid_es_energy:           -0.787285
##########           Internal_energy_repulsive:           12.793037

@<TRIPOS>MOLECULE
ZINC000866034032
 42 44 1 0 0
SMALL
USER_CHARGES


@<TRIPOS>ATOM
      1 C1        -12.0115    3.6626   49.9020 C.3     1  ZINC000866034032   -0.1300
      2 C2        -11.0192    3.4553   51.0480 C.3     1  ZINC000866034032   -0.0800
      3 C3        -11.3445    2.2257   51.8985 C.3     1  ZINC000866034032   -0.1300
      4 C4         -9.5490    3.5269   50.6072 C.3     1  ZINC000866034032    0.1400
      5 H5         -9.3985    3.2911   49.5537 H       1  ZINC000866034032    0.1100
      6 N6         -8.6376    2.7933   51.4888 N.am    1  ZINC000866034032   -0.7000
      7 C7         -7.4944    2.2764   50.9965 C.2     1  ZINC000866034032    0.5100
      8 O8         -7.2209    2.4173   49.8233 O.2     1  ZINC000866034032   -0.5300
      9 C9         -6.5559    1.5232   51.9037 C.3     1  ZINC000866034032   -0.1100
     10 C10        -5.1455    1.6561   51.3895 C.ar    1  ZINC000866034032   -0.0500
     11 C11        -4.6345    0.7094   50.5217 C.ar    1  ZINC000866034032   -0.0500
     12 C12        -3.3407    0.8306   50.0501 C.ar    1  ZINC000866034032   -0.0900
     13 C13        -2.5578    1.8996   50.4464 C.ar    1  ZINC000866034032   -0.0500
     14 Br14       -0.7881    2.0662   49.8013 Br      1  ZINC000866034032    0.0200
     15 C15        -3.0698    2.8471   51.3147 C.ar    1  ZINC000866034032   -0.0200
     16 N16        -2.2325    3.9915   51.7389 N.pl3   1  ZINC000866034032    0.0200
     17 O17        -2.6835    4.8257   52.5033 O.2     1  ZINC000866034032   -0.1600
     18 O18        -1.0926    4.0992   51.3235 O.2     1  ZINC000866034032   -0.1300
     19 C19        -4.3651    2.7279   51.7816 C.ar    1  ZINC000866034032   -0.0300
     20 C20        -9.6038    5.0359   50.8967 C.3     1  ZINC000866034032   -0.1500
     21 H21        -9.8306    5.6834   50.0498 H       1  ZINC000866034032    0.1200
     22 C22        -8.4493    5.5150   51.8048 C.3     1  ZINC000866034032   -0.1400
     23 C23        -9.0359    5.4411   53.2315 C.3     1  ZINC000866034032    0.0500
     24 O24       -10.0946    4.4629   53.1450 O.3     1  ZINC000866034032   -0.3600
     25 C25       -10.7645    4.7236   51.8757 C.3     1  ZINC000866034032    0.0600
     26 H26       -11.5765    5.4489   51.9258 H       1  ZINC000866034032    0.1000
     27 H27       -11.8231    4.6259   49.4281 H       1  ZINC000866034032    0.0600
     28 H28       -11.8899    2.8664   49.1677 H       1  ZINC000866034032    0.0700
     29 H29       -13.0284    3.6432   50.2940 H       1  ZINC000866034032    0.0700
     30 H30       -11.1543    1.3224   51.3189 H       1  ZINC000866034032    0.0600
     31 H31       -10.7171    2.2242   52.7899 H       1  ZINC000866034032    0.0600
     32 H32       -12.3936    2.2546   52.1926 H       1  ZINC000866034032    0.0600
     33 H33        -8.8568    2.6795   52.4268 H       1  ZINC000866034032    0.4100
     34 H34        -6.6156    1.9353   52.9111 H       1  ZINC000866034032    0.1100
     35 H35        -6.8374    0.4704   51.9245 H       1  ZINC000866034032    0.1200
     36 H36        -5.2460   -0.1254   50.2123 H       1  ZINC000866034032    0.1500
     37 H37        -2.9412    0.0905   49.3726 H       1  ZINC000866034032    0.1600
     38 H38        -4.7651    3.4678   52.4591 H       1  ZINC000866034032    0.1600
     39 H39        -7.5894    4.8519   51.7107 H       1  ZINC000866034032    0.0800
     40 H40        -8.1707    6.5399   51.5591 H       1  ZINC000866034032    0.0800
     41 H41        -8.2738    5.1138   53.9387 H       1  ZINC000866034032    0.0900
     42 H42        -9.4380    6.4102   53.5271 H       1  ZINC000866034032    0.0600
@<TRIPOS>BOND
     1     1     2    1
     2     1    27    1
     3     1    28    1
     4     1    29    1
     5     2    25    1
     6     2     3    1
     7     2     4    1
     8     3    30    1
     9     3    31    1
    10     3    32    1
    11     4     5    1
    12     4     6    1
    13     4    20    1
    14     6     7   am
    15     6    33    1
    16     7     8    2
    17     7     9    1
    18     9    10    1
    19     9    34    1
    20     9    35    1
    21    10    19   ar
    22    10    11   ar
    23    11    12   ar
    24    11    36    1
    25    12    13   ar
    26    12    37    1
    27    13    14    1
    28    13    15   ar
    29    15    16    1
    30    15    19   ar
    31    16    17    2
    32    16    18    2
    33    19    38    1
    34    20    21    1
    35    20    25    1
    36    20    22    1
    37    22    23    1
    38    22    39    1
    39    22    40    1
    40    23    24    1
    41    23    41    1
    42    23    42    1
    43    24    25    1
    44    25    26    1
@<TRIPOS>SUBSTRUCTURE
     1 ZINC000866034032        1 TEMP              0 ****  ****    0 ROOT


##########                                Name:    ZINC000187810810
##########                DOCK_Rotatable_Bonds:                   7
##########                         Heavy_Atoms:                  27
##########                    Molecular_Weight:             386.414
##########                DOCK_Rotatable_Bonds:                   7
##########                       Formal_Charge:           0.0599998
##########                     HBond_Acceptors:                   8
##########                        HBond_Donors:                   1
##########                         Heavy_Atoms:                  27
##########                          Grid_Score:          -28.374075
##########                     Grid_vdw_energy:          -24.819628
##########                      Grid_es_energy:           -3.554448
##########           Internal_energy_repulsive:           48.569679

@<TRIPOS>MOLECULE
ZINC000187810810
 52 53 1 0 0
SMALL
USER_CHARGES


@<TRIPOS>ATOM
      1 C1         -8.4577    0.5093   63.9755 C.3     1  ZINC000187810810   -0.1800
      2 C2         -9.7743    1.0335   63.3985 C.3     1  ZINC000187810810    0.1400
      3 C3        -10.5875    1.7020   64.5088 C.3     1  ZINC000187810810   -0.1800
      4 C4         -9.4781    2.0544   62.2981 C.3     1  ZINC000187810810   -0.1400
      5 O5        -10.5329   -0.0721   62.8416 O.3     1  ZINC000187810810   -0.3600
      6 C6        -11.3838    0.2143   61.8383 C.2     1  ZINC000187810810    0.6500
      7 O7        -12.3739    0.8849   62.0542 O.2     1  ZINC000187810810   -0.5600
      8 N8        -11.1375   -0.2428   60.5946 N.am    1  ZINC000187810810   -0.6000
      9 C9        -12.0527    0.0681   59.4879 C.3     1  ZINC000187810810    0.1100
     10 C10       -12.4707   -1.2411   58.8112 C.3     1  ZINC000187810810   -0.1400
     11 C11       -11.2194   -2.0168   58.3931 C.3     1  ZINC000187810810    0.1800
     12 C12       -11.6333   -3.3089   57.6859 C.3     1  ZINC000187810810   -0.1600
     13 N13       -10.4186   -1.1963   57.4812 N.am    1  ZINC000187810810   -0.7100
     14 C14       -10.9450   -0.7772   56.3134 C.2     1  ZINC000187810810    0.5500
     15 O15       -12.0837   -1.0813   56.0161 O.2     1  ZINC000187810810   -0.5100
     16 C16       -10.1374    0.0524   55.3938 C.ar    1  ZINC000187810810   -0.0900
     17 C17        -9.3279    1.0716   55.8974 C.ar    1  ZINC000187810810   -0.0900
     18 C18        -8.5764    1.8418   55.0338 C.ar    1  ZINC000187810810   -0.0900
     19 C19        -8.6245    1.6059   53.6715 C.ar    1  ZINC000187810810   -0.0900
     20 C20        -9.4254    0.5971   53.1657 C.ar    1  ZINC000187810810   -0.0800
     21 C21       -10.1769   -0.1842   54.0186 C.ar    1  ZINC000187810810   -0.1300
     22 C22       -11.0483   -1.2826   53.4661 C.3     1  ZINC000187810810    0.5200
     23 F23       -12.3930   -0.9144   53.5828 F       1  ZINC000187810810   -0.1800
     24 F24       -10.7373   -1.4911   52.1180 F       1  ZINC000187810810   -0.1600
     25 F25       -10.8237   -2.4620   54.1842 F       1  ZINC000187810810   -0.1600
     26 C26       -10.3901   -2.3575   59.6334 C.3     1  ZINC000187810810   -0.1500
     27 C27        -9.9455   -1.0562   60.3183 C.3     1  ZINC000187810810    0.1300
     28 H28        -8.6687   -0.2179   64.7596 H       1  ZINC000187810810    0.0900
     29 H29        -7.8784    0.0332   63.1846 H       1  ZINC000187810810    0.0600
     30 H30        -7.8882    1.3394   64.3936 H       1  ZINC000187810810    0.0700
     31 H31       -10.0180    2.5320   64.9269 H       1  ZINC000187810810    0.0700
     32 H32       -11.5253    2.0755   64.0977 H       1  ZINC000187810810    0.0600
     33 H33       -10.7984    0.9747   65.2929 H       1  ZINC000187810810    0.0900
     34 H34        -8.8988    1.5782   61.5070 H       1  ZINC000187810810    0.0700
     35 H35       -10.4159    2.4279   61.8870 H       1  ZINC000187810810    0.0700
     36 H36        -8.9085    2.8844   62.7162 H       1  ZINC000187810810    0.0800
     37 H37       -12.9351    0.5771   59.8756 H       1  ZINC000187810810    0.1000
     38 H38       -11.5472    0.7082   58.7647 H       1  ZINC000187810810    0.0700
     39 H39       -13.0544   -1.8412   59.5092 H       1  ZINC000187810810    0.0900
     40 H40       -13.0725   -1.0191   57.9300 H       1  ZINC000187810810    0.0900
     41 H41       -12.2229   -3.0663   56.8018 H       1  ZINC000187810810    0.0600
     42 H42       -10.7422   -3.8615   57.3880 H       1  ZINC000187810810    0.0800
     43 H43       -12.2295   -3.9193   58.3641 H       1  ZINC000187810810    0.0700
     44 H44        -9.5095   -0.9545   57.7179 H       1  ZINC000187810810    0.4000
     45 H45        -9.2901    1.2572   56.9607 H       1  ZINC000187810810    0.1400
     46 H46        -7.9496    2.6309   55.4222 H       1  ZINC000187810810    0.1400
     47 H47        -8.0346    2.2118   52.9998 H       1  ZINC000187810810    0.1400
     48 H48        -9.4588    0.4183   52.1011 H       1  ZINC000187810810    0.1500
     49 H49       -10.9935   -2.9471   60.3237 H       1  ZINC000187810810    0.0800
     50 H50        -9.5111   -2.9301   59.3374 H       1  ZINC000187810810    0.1000
     51 H51        -9.2683   -0.5104   59.6613 H       1  ZINC000187810810    0.0700
     52 H52        -9.4396   -1.2907   61.2549 H       1  ZINC000187810810    0.1000
@<TRIPOS>BOND
     1     1     2    1
     2     1    28    1
     3     1    29    1
     4     1    30    1
     5     2     3    1
     6     2     4    1
     7     2     5    1
     8     3    31    1
     9     3    32    1
    10     3    33    1
    11     4    34    1
    12     4    35    1
    13     4    36    1
    14     5     6    1
    15     6     7    2
    16     6     8   am
    17     8    27    1
    18     8     9    1
    19     9    10    1
    20     9    37    1
    21     9    38    1
    22    10    11    1
    23    10    39    1
    24    10    40    1
    25    11    12    1
    26    11    13    1
    27    11    26    1
    28    12    41    1
    29    12    42    1
    30    12    43    1
    31    13    14   am
    32    13    44    1
    33    14    15    2
    34    14    16    1
    35    16    21   ar
    36    16    17   ar
    37    17    18   ar
    38    17    45    1
    39    18    19   ar
    40    18    46    1
    41    19    20   ar
    42    19    47    1
    43    20    21   ar
    44    20    48    1
    45    21    22    1
    46    22    23    1
    47    22    24    1
    48    22    25    1
    49    26    27    1
    50    26    49    1
    51    26    50    1
    52    27    51    1
    53    27    52    1
@<TRIPOS>SUBSTRUCTURE
     1 ZINC000187810810        1 TEMP              0 ****  ****    0 ROOT


##########                                Name:    ZINC001091652821
##########                DOCK_Rotatable_Bonds:                   4
##########                         Heavy_Atoms:                  24
##########                    Molecular_Weight:             345.465
##########                DOCK_Rotatable_Bonds:                   4
##########                       Formal_Charge:          -0.0199997
##########                     HBond_Acceptors:                   6
##########                        HBond_Donors:                   0
##########                         Heavy_Atoms:                  24
##########                          Grid_Score:          -28.312082
##########                     Grid_vdw_energy:          -26.222637
##########                      Grid_es_energy:           -2.089445
##########           Internal_energy_repulsive:            4.304616

@<TRIPOS>MOLECULE
ZINC001091652821
 47 50 1 0 0
SMALL
USER_CHARGES


@<TRIPOS>ATOM
      1 C1        -12.2308   -0.4217   52.4167 C.3     1  ZINC001091652821   -0.1000
      2 C2        -12.6023   -1.3731   53.5249 C.2     1  ZINC001091652821   -0.1200
      3 C3        -13.8458   -1.8414   53.6825 C.2     1  ZINC001091652821   -0.2400
      4 S4        -13.9367   -2.8923   55.0235 S.3     1  ZINC001091652821    0.2100
      5 C5        -12.2260   -2.6778   55.3686 C.2     1  ZINC001091652821   -0.2700
      6 C6        -11.4940   -3.3136   56.4680 C.2     1  ZINC001091652821    0.6100
      7 O7        -11.4738   -4.5267   56.5643 O.2     1  ZINC001091652821   -0.5200
      8 N8        -10.8435   -2.5548   57.3722 N.am    1  ZINC001091652821   -0.6200
      9 C9        -10.7758   -1.0846   57.4011 C.3     1  ZINC001091652821    0.0900
     10 C10       -10.6713   -0.6838   58.8818 C.3     1  ZINC001091652821   -0.0900
     11 H11        -9.9867    0.1509   59.0323 H       1  ZINC001091652821    0.1100
     12 C12       -12.0839   -0.3793   59.4229 C.3     1  ZINC001091652821    0.0400
     13 N13       -12.1287   -1.0404   60.7522 N.3     1  ZINC001091652821   -0.5000
     14 C14       -13.5153   -1.2701   61.1794 C.3     1  ZINC001091652821    0.1200
     15 C15       -13.7811   -0.5096   62.4528 C.2     1  ZINC001091652821    0.0000
     16 C16       -13.2089    0.6496   62.8181 C.2     1  ZINC001091652821   -0.0800
     17 O17       -13.7224    0.9845   64.0180 O.3     1  ZINC001091652821   -0.2000
     18 C18       -14.5963    0.0317   64.3688 C.2     1  ZINC001091652821    0.1900
     19 C19       -15.4034    0.0064   65.6412 C.3     1  ZINC001091652821   -0.0600
     20 N20       -14.6382   -0.8660   63.4259 N.2     1  ZINC001091652821   -0.4700
     21 C21       -11.4159   -2.3267   60.5438 C.3     1  ZINC001091652821    0.0400
     22 C22       -10.2026   -1.9646   59.6195 C.3     1  ZINC001091652821   -0.0700
     23 C23        -8.9119   -1.7670   60.4169 C.3     1  ZINC001091652821   -0.1300
     24 C24       -10.0672   -3.0342   58.5273 C.3     1  ZINC001091652821    0.1200
     25 C25       -11.6870   -1.8278   54.4443 C.2     1  ZINC001091652821   -0.0500
     26 H26       -11.9233   -0.9893   51.5384 H       1  ZINC001091652821    0.0700
     27 H27       -13.0920    0.1977   52.1657 H       1  ZINC001091652821    0.0700
     28 H28       -11.4087    0.2145   52.7443 H       1  ZINC001091652821    0.0700
     29 H29       -14.6807   -1.5877   53.0459 H       1  ZINC001091652821    0.1700
     30 H30        -9.8962   -0.7399   56.8573 H       1  ZINC001091652821    0.0800
     31 H31       -11.6782   -0.6599   56.9615 H       1  ZINC001091652821    0.0800
     32 H32       -12.2265    0.6961   59.5286 H       1  ZINC001091652821    0.0800
     33 H33       -12.8423   -0.8009   58.7633 H       1  ZINC001091652821    0.0500
     34 H34       -14.1969   -0.9259   60.4016 H       1  ZINC001091652821    0.0500
     35 H35       -13.6703   -2.3350   61.3530 H       1  ZINC001091652821    0.1000
     36 H36       -12.4751    1.2080   62.2557 H       1  ZINC001091652821    0.2100
     37 H37       -15.1673    0.8869   66.2389 H       1  ZINC001091652821    0.0900
     38 H38       -16.4659    0.0069   65.3977 H       1  ZINC001091652821    0.1000
     39 H39       -15.1609   -0.8928   66.2075 H       1  ZINC001091652821    0.1000
     40 H40       -11.0550   -2.7192   61.4944 H       1  ZINC001091652821    0.0900
     41 H41       -12.0709   -3.0495   60.0576 H       1  ZINC001091652821    0.0500
     42 H42        -8.6605   -2.6918   60.9362 H       1  ZINC001091652821    0.0600
     43 H43        -8.1024   -1.5002   59.7375 H       1  ZINC001091652821    0.0600
     44 H44        -9.0534   -0.9683   61.1450 H       1  ZINC001091652821    0.0700
     45 H45       -10.4879   -3.9782   58.8740 H       1  ZINC001091652821    0.0900
     46 H46        -9.0184   -3.1668   58.2616 H       1  ZINC001091652821    0.0800
     47 H47       -10.6472   -1.5361   54.4412 H       1  ZINC001091652821    0.1500
@<TRIPOS>BOND
     1     1     2    1
     2     1    26    1
     3     1    27    1
     4     1    28    1
     5     2    25    1
     6     2     3    2
     7     3     4    1
     8     3    29    1
     9     4     5    1
    10     5     6    1
    11     5    25    2
    12     6     7    2
    13     6     8   am
    14     8    24    1
    15     8     9    1
    16     9    10    1
    17     9    30    1
    18     9    31    1
    19    10    11    1
    20    10    22    1
    21    10    12    1
    22    12    13    1
    23    12    32    1
    24    12    33    1
    25    13    14    1
    26    13    21    1
    27    14    15    1
    28    14    34    1
    29    14    35    1
    30    15    20    1
    31    15    16    2
    32    16    17    1
    33    16    36    1
    34    17    18    1
    35    18    19    1
    36    18    20    2
    37    19    37    1
    38    19    38    1
    39    19    39    1
    40    21    22    1
    41    21    40    1
    42    21    41    1
    43    22    23    1
    44    22    24    1
    45    23    42    1
    46    23    43    1
    47    23    44    1
    48    24    45    1
    49    24    46    1
    50    25    47    1
@<TRIPOS>SUBSTRUCTURE
     1 ZINC001091652821        1 TEMP              0 ****  ****    0 ROOT


##########                                Name:    ZINC000965273005
##########                DOCK_Rotatable_Bonds:                   7
##########                         Heavy_Atoms:                  27
##########                    Molecular_Weight:             368.436
##########                DOCK_Rotatable_Bonds:                   7
##########                       Formal_Charge:           0.0100003
##########                     HBond_Acceptors:                   7
##########                        HBond_Donors:                   2
##########                         Heavy_Atoms:                  27
##########                          Grid_Score:          -28.257908
##########                     Grid_vdw_energy:          -24.504059
##########                      Grid_es_energy:           -3.753848
##########           Internal_energy_repulsive:           12.977249

@<TRIPOS>MOLECULE
ZINC000965273005
 51 54 1 0 0
SMALL
USER_CHARGES


@<TRIPOS>ATOM
      1 C1         -8.2672    3.5765   50.9725 C.3     1  ZINC000965273005   -0.1200
      2 C2         -7.4304    3.4135   52.2151 C.ar    1  ZINC000965273005   -0.0300
      3 C3         -6.3048    4.1898   52.3972 C.ar    1  ZINC000965273005   -0.1200
      4 C4         -5.5353    4.0414   53.5377 C.ar    1  ZINC000965273005   -0.0900
      5 C5         -5.8889    3.1150   54.5023 C.ar    1  ZINC000965273005   -0.1300
      6 C6         -7.0123    2.3321   54.3325 C.ar    1  ZINC000965273005   -0.0900
      7 C7         -7.7957    2.4805   53.1871 C.ar    1  ZINC000965273005   -0.1300
      8 C8         -9.0008    1.6450   52.9985 C.2     1  ZINC000965273005    0.5800
      9 O9         -9.0423    0.8335   52.0946 O.2     1  ZINC000965273005   -0.5200
     10 N10       -10.0534    1.7833   53.8288 N.am    1  ZINC000965273005   -0.6100
     11 C11       -11.3093    1.0143   53.7595 C.3     1  ZINC000965273005    0.0900
     12 C12       -11.8866    1.0674   55.1959 C.3     1  ZINC000965273005    0.1500
     13 H13       -12.9682    0.9325   55.1875 H       1  ZINC000965273005    0.1200
     14 N14       -11.2429    0.0728   56.0578 N.am    1  ZINC000965273005   -0.7100
     15 C15       -11.9863   -0.8689   56.6717 C.2     1  ZINC000965273005    0.6000
     16 O16       -13.1916   -0.8922   56.5115 O.2     1  ZINC000965273005   -0.5400
     17 C17       -11.3383   -1.8709   57.5376 C.2     1  ZINC000965273005   -0.2800
     18 C18       -10.1293   -1.7318   58.1889 C.2     1  ZINC000965273005    0.1000
     19 N19        -9.9052   -2.8684   58.8675 N.pl3   1  ZINC000965273005   -0.3600
     20 C20        -8.7335   -3.1516   59.7001 C.3     1  ZINC000965273005    0.1000
     21 N21       -10.9799   -3.7367   58.6459 N.2     1  ZINC000965273005   -0.3000
     22 C22       -11.8414   -3.1511   57.8608 C.2     1  ZINC000965273005    0.1700
     23 C23       -13.1406   -3.7404   57.3753 C.3     1  ZINC000965273005   -0.0800
     24 C24       -13.2956   -3.9647   55.8697 C.3     1  ZINC000965273005   -0.1700
     25 C25       -13.1031   -5.1598   56.8054 C.3     1  ZINC000965273005   -0.1600
     26 C26       -11.5092    2.5084   55.6302 C.3     1  ZINC000965273005    0.0900
     27 H27       -12.2403    3.2269   55.2595 H       1  ZINC000965273005    0.0900
     28 O28       -11.3948    2.5943   57.0521 O.3     1  ZINC000965273005   -0.5500
     29 C29       -10.1369    2.7216   54.9577 C.3     1  ZINC000965273005    0.0600
     30 H30        -9.0922    4.2590   51.1769 H       1  ZINC000965273005    0.0800
     31 H31        -7.6509    3.9816   50.1699 H       1  ZINC000965273005    0.0700
     32 H32        -8.6639    2.6068   50.6718 H       1  ZINC000965273005    0.0700
     33 H33        -6.0234    4.9149   51.6479 H       1  ZINC000965273005    0.1300
     34 H34        -4.6547    4.6512   53.6751 H       1  ZINC000965273005    0.1300
     35 H35        -5.2841    3.0041   55.3902 H       1  ZINC000965273005    0.1300
     36 H36        -7.2871    1.6090   55.0862 H       1  ZINC000965273005    0.1300
     37 H37       -12.0000    1.4785   53.0555 H       1  ZINC000965273005    0.0900
     38 H38       -11.1071   -0.0169   53.4698 H       1  ZINC000965273005    0.0900
     39 H39       -10.2816    0.0921   56.1865 H       1  ZINC000965273005    0.4000
     40 H40        -9.4821   -0.8677   58.1580 H       1  ZINC000965273005    0.1800
     41 H41        -8.9283   -2.8300   60.7231 H       1  ZINC000965273005    0.0800
     42 H42        -8.5297   -4.2223   59.6883 H       1  ZINC000965273005    0.1000
     43 H43        -7.8707   -2.6132   59.3080 H       1  ZINC000965273005    0.0900
     44 H44       -14.0286   -3.4460   57.9346 H       1  ZINC000965273005    0.1400
     45 H45       -14.2857   -3.8176   55.4382 H       1  ZINC000965273005    0.1000
     46 H46       -12.4578   -3.6860   55.2305 H       1  ZINC000965273005    0.1000
     47 H47       -12.1388   -5.6674   56.7817 H       1  ZINC000965273005    0.0900
     48 H48       -13.9666   -5.7990   56.9894 H       1  ZINC000965273005    0.1000
     49 H49       -10.5458    2.2866   57.3977 H       1  ZINC000965273005    0.3900
     50 H50        -9.3386    2.5212   55.6723 H       1  ZINC000965273005    0.0800
     51 H51       -10.0594    3.7446   54.5894 H       1  ZINC000965273005    0.0800
@<TRIPOS>BOND
     1     1     2    1
     2     1    30    1
     3     1    31    1
     4     1    32    1
     5     2     7   ar
     6     2     3   ar
     7     3     4   ar
     8     3    33    1
     9     4     5   ar
    10     4    34    1
    11     5     6   ar
    12     5    35    1
    13     6     7   ar
    14     6    36    1
    15     7     8    1
    16     8     9    2
    17     8    10   am
    18    10    29    1
    19    10    11    1
    20    11    12    1
    21    11    37    1
    22    11    38    1
    23    12    13    1
    24    12    14    1
    25    12    26    1
    26    14    15   am
    27    14    39    1
    28    15    16    2
    29    15    17    1
    30    17    22    1
    31    17    18    2
    32    18    19    1
    33    18    40    1
    34    19    20    1
    35    19    21    1
    36    20    41    1
    37    20    42    1
    38    20    43    1
    39    21    22    2
    40    22    23    1
    41    23    25    1
    42    23    24    1
    43    23    44    1
    44    24    25    1
    45    24    45    1
    46    24    46    1
    47    25    47    1
    48    25    48    1
    49    26    27    1
    50    26    28    1
    51    26    29    1
    52    28    49    1
    53    29    50    1
    54    29    51    1
@<TRIPOS>SUBSTRUCTURE
     1 ZINC000965273005        1 TEMP              0 ****  ****    0 ROOT


##########                                Name:    ZINC000794876634
##########                DOCK_Rotatable_Bonds:                   4
##########                         Heavy_Atoms:                  24
##########                    Molecular_Weight:             389.249
##########                DOCK_Rotatable_Bonds:                   4
##########                       Formal_Charge:        -4.47035e-08
##########                     HBond_Acceptors:                   5
##########                        HBond_Donors:                   0
##########                         Heavy_Atoms:                  24
##########                          Grid_Score:          -28.175804
##########                     Grid_vdw_energy:          -28.285477
##########                      Grid_es_energy:            0.109672
##########           Internal_energy_repulsive:           18.991283

@<TRIPOS>MOLECULE
ZINC000794876634
 41 43 1 0 0
SMALL
USER_CHARGES


@<TRIPOS>ATOM
      1 C1        -10.8120    0.7930   63.6744 C.3     1  ZINC000794876634    0.0200
      2 O2        -10.8125    1.3086   62.3417 O.3     1  ZINC000794876634   -0.3000
      3 C3        -11.6361    0.7040   61.4470 C.ar    1  ZINC000794876634    0.1300
      4 C4        -12.5410   -0.2569   61.8790 C.ar    1  ZINC000794876634   -0.1800
      5 C5        -13.3788   -0.8742   60.9770 C.ar    1  ZINC000794876634   -0.0400
      6 C6        -14.3592   -1.9164   61.4499 C.3     1  ZINC000794876634   -0.1200
      7 C7        -13.3193   -0.5326   59.6195 C.ar    1  ZINC000794876634   -0.1000
      8 C8        -14.2097   -1.1873   58.6568 C.2     1  ZINC000794876634    0.0600
      9 C9        -13.8031   -2.3194   58.0118 C.2     1  ZINC000794876634   -0.1700
     10 C10       -14.5555   -3.1074   57.0204 C.2     1  ZINC000794876634    0.5700
     11 O11       -15.6778   -2.8648   56.6155 O.2     1  ZINC000794876634   -0.4900
     12 N12       -13.7848   -4.1405   56.6414 N.am    1  ZINC000794876634   -0.5300
     13 C13       -14.1876   -5.1530   55.6621 C.3     1  ZINC000794876634    0.0800
     14 C14       -12.5606   -4.1289   57.2917 C.ar    1  ZINC000794876634    0.3700
     15 N15       -11.5185   -4.9475   57.2176 N.ar    1  ZINC000794876634   -0.4900
     16 C16       -10.4294   -4.7553   57.9340 C.ar    1  ZINC000794876634    0.1800
     17 C17       -10.3152   -3.6858   58.8043 C.ar    1  ZINC000794876634   -0.1800
     18 Br18       -8.7377   -3.4390   59.8173 Br      1  ZINC000794876634   -0.0200
     19 C19       -11.3735   -2.7965   58.9235 C.ar    1  ZINC000794876634    0.0000
     20 C20       -12.5078   -3.0207   58.1504 C.ar    1  ZINC000794876634   -0.1400
     21 C21       -12.4055    0.4380   59.1852 C.ar    1  ZINC000794876634   -0.1400
     22 C22       -11.5741    1.0544   60.0978 C.ar    1  ZINC000794876634    0.0900
     23 O23       -10.6868    1.9966   59.6804 O.3     1  ZINC000794876634   -0.3000
     24 C24       -10.6766    2.3055   58.2852 C.3     1  ZINC000794876634    0.0200
     25 H25       -10.1127    1.3643   64.2847 H       1  ZINC000794876634    0.1000
     26 H26       -11.8138    0.8753   64.0962 H       1  ZINC000794876634    0.0600
     27 H27       -10.5093   -0.2541   63.6587 H       1  ZINC000794876634    0.0600
     28 H28       -12.5875   -0.5209   62.9252 H       1  ZINC000794876634    0.1400
     29 H29       -15.3001   -1.4353   61.7171 H       1  ZINC000794876634    0.0800
     30 H30       -14.5340   -2.6391   60.6529 H       1  ZINC000794876634    0.0700
     31 H31       -13.9527   -2.4286   62.3220 H       1  ZINC000794876634    0.0700
     32 H32       -15.1873   -0.7739   58.4577 H       1  ZINC000794876634    0.1500
     33 H33       -15.1927   -4.9315   55.3030 H       1  ZINC000794876634    0.0900
     34 H34       -13.4918   -5.1440   54.8230 H       1  ZINC000794876634    0.0800
     35 H35       -14.1780   -6.1366   56.1315 H       1  ZINC000794876634    0.0800
     36 H36        -9.6069   -5.4489   57.8400 H       1  ZINC000794876634    0.1800
     37 H37       -11.3163   -1.9519   59.5942 H       1  ZINC000794876634    0.1600
     38 H38       -12.3552    0.7053   58.1400 H       1  ZINC000794876634    0.1400
     39 H39       -10.3576    1.4289   57.7215 H       1  ZINC000794876634    0.0500
     40 H40       -11.6789    2.5953   57.9699 H       1  ZINC000794876634    0.0600
     41 H41        -9.9855    3.1278   58.1001 H       1  ZINC000794876634    0.1100
@<TRIPOS>BOND
     1     1     2    1
     2     1    25    1
     3     1    26    1
     4     1    27    1
     5     2     3    1
     6     3    22   ar
     7     3     4   ar
     8     4     5   ar
     9     4    28    1
    10     5     6    1
    11     5     7   ar
    12     6    29    1
    13     6    30    1
    14     6    31    1
    15     7     8    1
    16     7    21   ar
    17     8     9    2
    18     8    32    1
    19     9    20    1
    20     9    10    1
    21    10    11    2
    22    10    12   am
    23    12    13    1
    24    12    14    1
    25    13    33    1
    26    13    34    1
    27    13    35    1
    28    14    20   ar
    29    14    15   ar
    30    15    16   ar
    31    16    17   ar
    32    16    36    1
    33    17    18    1
    34    17    19   ar
    35    19    20   ar
    36    19    37    1
    37    21    22   ar
    38    21    38    1
    39    22    23    1
    40    23    24    1
    41    24    39    1
    42    24    40    1
    43    24    41    1
@<TRIPOS>SUBSTRUCTURE
     1 ZINC000794876634        1 TEMP              0 ****  ****    0 ROOT


##########                                Name:    ZINC000956479608
##########                DOCK_Rotatable_Bonds:                   5
##########                         Heavy_Atoms:                  25
##########                    Molecular_Weight:             345.442
##########                DOCK_Rotatable_Bonds:                   5
##########                       Formal_Charge:          -0.0100001
##########                     HBond_Acceptors:                   6
##########                        HBond_Donors:                   1
##########                         Heavy_Atoms:                  25
##########                          Grid_Score:          -28.103210
##########                     Grid_vdw_energy:          -26.492590
##########                      Grid_es_energy:           -1.610620
##########           Internal_energy_repulsive:           32.200817

@<TRIPOS>MOLECULE
ZINC000956479608
 52 55 1 0 0
SMALL
USER_CHARGES


@<TRIPOS>ATOM
      1 C1        -11.3357    3.1022   53.7356 C.3     1  ZINC000956479608   -0.0900
      2 C2        -10.2964    2.0711   54.0931 C.2     1  ZINC000956479608   -0.1100
      3 C3         -8.9425    2.1385   53.9080 C.2     1  ZINC000956479608   -0.1000
      4 C4         -8.1839    3.2523   53.3082 C.2     1  ZINC000956479608    0.6100
      5 O5         -8.7735    4.1666   52.7653 O.2     1  ZINC000956479608   -0.5000
      6 N6         -6.8372    3.2566   53.3621 N.am    1  ZINC000956479608   -0.7100
      7 C7         -6.0837    4.3620   52.7649 C.3     1  ZINC000956479608    0.1800
      8 C8         -6.4863    5.6757   53.4381 C.3     1  ZINC000956479608   -0.1700
      9 C9         -4.5852    4.1248   52.9658 C.3     1  ZINC000956479608   -0.1500
     10 C10        -4.1922    2.7923   52.3204 C.3     1  ZINC000956479608    0.1100
     11 N11        -4.6181    2.8040   50.9144 N.am    1  ZINC000956479608   -0.6100
     12 C12        -3.7389    2.5376   49.9282 C.2     1  ZINC000956479608    0.5500
     13 O13        -4.1026    2.5518   48.7713 O.2     1  ZINC000956479608   -0.5400
     14 C14        -2.3039    2.2219   50.2631 C.3     1  ZINC000956479608   -0.1900
     15 H15        -2.1545    1.4113   50.9763 H       1  ZINC000956479608    0.1200
     16 C16        -1.2702    2.3857   49.1566 C.3     1  ZINC000956479608   -0.1100
     17 H17        -1.6507    2.7372   48.1975 H       1  ZINC000956479608    0.1000
     18 C18        -0.1061    1.4120   49.0584 C.3     1  ZINC000956479608   -0.0900
     19 C19         0.5780    1.2562   50.4166 C.3     1  ZINC000956479608   -0.1200
     20 C20         0.9838    2.6456   50.9216 C.3     1  ZINC000956479608   -0.1200
     21 C21        -0.2714    3.3767   51.3979 C.3     1  ZINC000956479608   -0.0900
     22 C22        -1.3088    3.3921   50.2990 C.3     1  ZINC000956479608   -0.1100
     23 H23        -1.7079    4.3746   50.0468 H       1  ZINC000956479608    0.1100
     24 C24        -6.0209    3.1113   50.6037 C.3     1  ZINC000956479608    0.1000
     25 C25        -6.3935    4.4403   51.2683 C.3     1  ZINC000956479608   -0.1400
     26 O26        -8.4424    0.9826   54.3843 O.3     1  ZINC000956479608    0.1200
     27 N27        -9.3161    0.2663   54.8142 N.2     1  ZINC000956479608   -0.3400
     28 C28       -10.4922    0.8121   54.7031 C.2     1  ZINC000956479608   -0.0100
     29 H29       -11.4769    3.7822   54.5757 H       1  ZINC000956479608    0.0800
     30 H30       -11.0035    3.6659   52.8638 H       1  ZINC000956479608    0.0900
     31 H31       -12.2785    2.6044   53.5087 H       1  ZINC000956479608    0.0800
     32 H32        -6.3669    2.5279   53.7963 H       1  ZINC000956479608    0.4100
     33 H33        -6.2663    5.6199   54.5043 H       1  ZINC000956479608    0.0800
     34 H34        -5.9258    6.4982   52.9939 H       1  ZINC000956479608    0.0700
     35 H35        -7.5537    5.8447   53.2958 H       1  ZINC000956479608    0.0600
     36 H36        -4.0231    4.9344   52.5002 H       1  ZINC000956479608    0.0800
     37 H37        -4.3617    4.0926   54.0322 H       1  ZINC000956479608    0.1000
     38 H38        -3.1110    2.6653   52.3737 H       1  ZINC000956479608    0.0900
     39 H39        -4.6846    1.9731   52.8446 H       1  ZINC000956479608    0.0600
     40 H40        -0.4761    0.4412   48.7286 H       1  ZINC000956479608    0.0700
     41 H41         0.6159    1.7866   48.3328 H       1  ZINC000956479608    0.0700
     42 H42        -0.1128    0.7973   51.1238 H       1  ZINC000956479608    0.0600
     43 H43         1.4651    0.6320   50.3101 H       1  ZINC000956479608    0.0700
     44 H44         1.6846    2.5435   51.7503 H       1  ZINC000956479608    0.0700
     45 H45         1.4497    3.2076   50.1120 H       1  ZINC000956479608    0.0700
     46 H46        -0.6797    2.8638   52.2687 H       1  ZINC000956479608    0.0700
     47 H47        -0.0117    4.3992   51.6723 H       1  ZINC000956479608    0.0700
     48 H48        -6.1462    3.1948   49.5241 H       1  ZINC000956479608    0.0900
     49 H49        -6.6624    2.3181   50.9878 H       1  ZINC000956479608    0.0700
     50 H50        -7.4569    4.6325   51.1264 H       1  ZINC000956479608    0.0900
     51 H51        -5.8143    5.2468   50.8185 H       1  ZINC000956479608    0.0900
     52 H52       -11.4345    0.3830   55.0099 H       1  ZINC000956479608    0.2000
@<TRIPOS>BOND
     1     1     2    1
     2     1    29    1
     3     1    30    1
     4     1    31    1
     5     2    28    1
     6     2     3    2
     7     3     4    1
     8     3    26    1
     9     4     5    2
    10     4     6   am
    11     6     7    1
    12     6    32    1
    13     7    25    1
    14     7     8    1
    15     7     9    1
    16     8    33    1
    17     8    34    1
    18     8    35    1
    19     9    10    1
    20     9    36    1
    21     9    37    1
    22    10    11    1
    23    10    38    1
    24    10    39    1
    25    11    12   am
    26    11    24    1
    27    12    13    2
    28    12    14    1
    29    14    15    1
    30    14    22    1
    31    14    16    1
    32    16    17    1
    33    16    22    1
    34    16    18    1
    35    18    19    1
    36    18    40    1
    37    18    41    1
    38    19    20    1
    39    19    42    1
    40    19    43    1
    41    20    21    1
    42    20    44    1
    43    20    45    1
    44    21    22    1
    45    21    46    1
    46    21    47    1
    47    22    23    1
    48    24    25    1
    49    24    48    1
    50    24    49    1
    51    25    50    1
    52    25    51    1
    53    26    27    1
    54    27    28    2
    55    28    52    1
@<TRIPOS>SUBSTRUCTURE
     1 ZINC000956479608        1 TEMP              0 ****  ****    0 ROOT


##########                                Name:    ZINC000277311370
##########                DOCK_Rotatable_Bonds:                   5
##########                         Heavy_Atoms:                  17
##########                    Molecular_Weight:             361.036
##########                DOCK_Rotatable_Bonds:                   5
##########                       Formal_Charge:        -7.45058e-08
##########                     HBond_Acceptors:                   4
##########                        HBond_Donors:                   1
##########                         Heavy_Atoms:                  17
##########                          Grid_Score:          -28.079750
##########                     Grid_vdw_energy:          -26.835339
##########                      Grid_es_energy:           -1.244411
##########           Internal_energy_repulsive:            7.134097

@<TRIPOS>MOLECULE
ZINC000277311370
 28 28 1 0 0
SMALL
USER_CHARGES


@<TRIPOS>ATOM
      1 C1         -8.8618   -2.3419   59.4246 C.3     1  ZINC000277311370   -0.1500
      2 C2         -9.9797   -2.2474   60.4651 C.3     1  ZINC000277311370   -0.1000
      3 C3         -9.5547   -1.2961   61.5854 C.3     1  ZINC000277311370   -0.1600
      4 C4        -11.2514   -1.7166   59.8003 C.3     1  ZINC000277311370    0.2500
      5 H5        -11.1280   -0.6577   59.5732 H       1  ZINC000277311370    0.1400
      6 C6        -12.3926   -1.8929   60.7132 C.1     1  ZINC000277311370    0.1900
      7 N7        -13.2733   -2.0290   61.4177 N.1     1  ZINC000277311370   -0.4100
      8 N8        -11.4993   -2.4562   58.5602 N.am    1  ZINC000277311370   -0.7000
      9 C9        -12.3734   -1.9772   57.6530 C.2     1  ZINC000277311370    0.5700
     10 O10       -12.9549   -0.9309   57.8631 O.2     1  ZINC000277311370   -0.4900
     11 C11       -12.6253   -2.7257   56.4002 C.ar    1  ZINC000277311370    0.1100
     12 N12       -11.9091   -2.4543   55.3158 N.ar    1  ZINC000277311370   -0.4300
     13 C13       -12.1009   -3.0964   54.1835 C.ar    1  ZINC000277311370    0.1300
     14 Br14      -11.0467   -2.6616   52.6750 Br      1  ZINC000277311370    0.0200
     15 C15       -13.0656   -4.0879   54.0811 C.ar    1  ZINC000277311370   -0.1100
     16 C16       -13.8356   -4.4033   55.1886 C.ar    1  ZINC000277311370   -0.0400
     17 C17       -13.6084   -3.7135   56.3709 C.ar    1  ZINC000277311370   -0.0900
     18 Br18      -14.6271   -4.0987   57.9168 Br      1  ZINC000277311370    0.0300
     19 H19        -7.9558   -2.7200   59.8982 H       1  ZINC000277311370    0.0700
     20 H20        -9.1647   -3.0196   58.6266 H       1  ZINC000277311370    0.0700
     21 H21        -8.6687   -1.3533   59.0081 H       1  ZINC000277311370    0.0600
     22 H22       -10.1729   -3.2360   60.8817 H       1  ZINC000277311370    0.1000
     23 H23        -9.3615   -0.3075   61.1688 H       1  ZINC000277311370    0.0600
     24 H24       -10.3511   -1.2286   62.3265 H       1  ZINC000277311370    0.0600
     25 H25        -8.6486   -1.6741   62.0589 H       1  ZINC000277311370    0.0700
     26 H26       -11.0343   -3.2907   58.3919 H       1  ZINC000277311370    0.4200
     27 H27       -13.2150   -4.6089   53.1471 H       1  ZINC000277311370    0.1600
     28 H28       -14.5928   -5.1714   55.1342 H       1  ZINC000277311370    0.1700
@<TRIPOS>BOND
     1     1     2    1
     2     1    19    1
     3     1    20    1
     4     1    21    1
     5     2     3    1
     6     2     4    1
     7     2    22    1
     8     3    23    1
     9     3    24    1
    10     3    25    1
    11     4     5    1
    12     4     6    1
    13     4     8    1
    14     6     7    3
    15     8     9   am
    16     8    26    1
    17     9    10    2
    18     9    11    1
    19    11    17   ar
    20    11    12   ar
    21    12    13   ar
    22    13    14    1
    23    13    15   ar
    24    15    16   ar
    25    15    27    1
    26    16    17   ar
    27    16    28    1
    28    17    18    1
@<TRIPOS>SUBSTRUCTURE
     1 ZINC000277311370        1 TEMP              0 ****  ****    0 ROOT


##########                                Name:    ZINC000879023512
##########                DOCK_Rotatable_Bonds:                   4
##########                         Heavy_Atoms:                  20
##########                    Molecular_Weight:             346.156
##########                DOCK_Rotatable_Bonds:                   4
##########                       Formal_Charge:        -5.96046e-08
##########                     HBond_Acceptors:                   7
##########                        HBond_Donors:                   1
##########                         Heavy_Atoms:                  20
##########                          Grid_Score:          -27.934040
##########                     Grid_vdw_energy:          -27.265423
##########                      Grid_es_energy:           -0.668617
##########           Internal_energy_repulsive:            4.019405

@<TRIPOS>MOLECULE
ZINC000879023512
 33 34 1 0 0
SMALL
USER_CHARGES


@<TRIPOS>ATOM
      1 O1         -7.9347   -0.7687   52.3066 O.2     1  ZINC000879023512   -0.5600
      2 C2         -8.0549    0.4329   52.4483 C.2     1  ZINC000879023512    0.7200
      3 N3         -9.0498    0.9251   53.2128 N.am    1  ZINC000879023512   -0.6800
      4 C4         -9.9481    0.0531   53.8390 C.ar    1  ZINC000879023512    0.1800
      5 C5         -9.9111   -0.1115   55.2172 C.ar    1  ZINC000879023512   -0.0900
      6 C6        -10.7986   -0.9726   55.8328 C.ar    1  ZINC000879023512   -0.0700
      7 C7        -11.7233   -1.6711   55.0773 C.ar    1  ZINC000879023512   -0.0700
      8 Br8       -12.9367   -2.8491   55.9234 Br      1  ZINC000879023512    0.0200
      9 C9        -11.7624   -1.5088   53.7035 C.ar    1  ZINC000879023512    0.0000
     10 N10       -12.7532   -2.2578   52.8985 N.pl3   1  ZINC000879023512    0.0200
     11 O11       -12.7881   -2.1154   51.6893 O.2     1  ZINC000879023512   -0.1500
     12 O12       -13.5337   -3.0164   53.4450 O.2     1  ZINC000879023512   -0.1300
     13 C13       -10.8816   -0.6446   53.0837 C.ar    1  ZINC000879023512   -0.0500
     14 N14        -7.1900    1.2724   51.8453 N.am    1  ZINC000879023512   -0.6300
     15 C15        -7.2119    2.7394   51.9410 C.3     1  ZINC000879023512    0.0900
     16 C16        -6.0552    3.2728   51.0699 C.3     1  ZINC000879023512   -0.1200
     17 C17        -5.7968    2.1045   50.0821 C.3     1  ZINC000879023512   -0.1400
     18 H18        -6.4958    2.1377   49.2464 H       1  ZINC000879023512    0.1000
     19 C19        -4.3502    2.1171   49.5841 C.3     1  ZINC000879023512    0.0700
     20 F20        -3.4809    1.9932   50.6732 F       1  ZINC000879023512   -0.2100
     21 C21        -6.0613    0.8717   50.9858 C.3     1  ZINC000879023512    0.1300
     22 H22        -9.1433    1.8835   53.3290 H       1  ZINC000879023512    0.4200
     23 H23        -9.1887    0.4330   55.8073 H       1  ZINC000879023512    0.1600
     24 H24       -10.7701   -1.1010   56.9047 H       1  ZINC000879023512    0.1600
     25 H25       -10.9128   -0.5181   52.0117 H       1  ZINC000879023512    0.1800
     26 H26        -8.1627    3.1210   51.5688 H       1  ZINC000879023512    0.0700
     27 H27        -7.0674    3.0455   52.9771 H       1  ZINC000879023512    0.0700
     28 H28        -6.3592    4.1715   50.5333 H       1  ZINC000879023512    0.0900
     29 H29        -5.1716    3.4659   51.6782 H       1  ZINC000879023512    0.0900
     30 H30        -4.1948    1.2840   48.8986 H       1  ZINC000879023512    0.0800
     31 H31        -4.1524    3.0555   49.0662 H       1  ZINC000879023512    0.0800
     32 H32        -5.1807    0.6464   51.5873 H       1  ZINC000879023512    0.0800
     33 H33        -6.3383    0.0093   50.3793 H       1  ZINC000879023512    0.0900
@<TRIPOS>BOND
     1     1     2    2
     2     2     3   am
     3     2    14   am
     4     3     4    1
     5     3    22    1
     6     4    13   ar
     7     4     5   ar
     8     5     6   ar
     9     5    23    1
    10     6     7   ar
    11     6    24    1
    12     7     8    1
    13     7     9   ar
    14     9    10    1
    15     9    13   ar
    16    10    11    2
    17    10    12    2
    18    13    25    1
    19    14    21    1
    20    14    15    1
    21    15    16    1
    22    15    26    1
    23    15    27    1
    24    16    17    1
    25    16    28    1
    26    16    29    1
    27    17    18    1
    28    17    19    1
    29    17    21    1
    30    19    20    1
    31    19    30    1
    32    19    31    1
    33    21    32    1
    34    21    33    1
@<TRIPOS>SUBSTRUCTURE
     1 ZINC000879023512        1 TEMP              0 ****  ****    0 ROOT


##########                                Name:    ZINC001211202056
##########                DOCK_Rotatable_Bonds:                   4
##########                         Heavy_Atoms:                  23
##########                    Molecular_Weight:             386.181
##########                DOCK_Rotatable_Bonds:                   4
##########                       Formal_Charge:           0.0199999
##########                     HBond_Acceptors:                  11
##########                        HBond_Donors:                   3
##########                         Heavy_Atoms:                  23
##########                          Grid_Score:          -27.614178
##########                     Grid_vdw_energy:          -27.777994
##########                      Grid_es_energy:            0.163817
##########           Internal_energy_repulsive:            8.467423

@<TRIPOS>MOLECULE
ZINC001211202056
 31 32 1 0 0
SMALL
USER_CHARGES


@<TRIPOS>ATOM
      1 N1         -2.9470    5.3362   54.6957 N.pl3   1  ZINC001211202056   -0.8500
      2 C2         -3.3329    4.5477   53.6083 C.ar    1  ZINC001211202056    0.2900
      3 C3         -2.7664    4.7606   52.3587 C.ar    1  ZINC001211202056   -0.2000
      4 C4         -3.1501    3.9795   51.2856 C.ar    1  ZINC001211202056    0.0400
      5 C5         -4.0973    2.9868   51.4544 C.ar    1  ZINC001211202056   -0.7300
      6 S6         -4.5833    1.9933   50.0827 S.o2    1  ZINC001211202056    2.6900
      7 O7         -4.0008    2.5872   48.9307 O.2     1  ZINC001211202056   -0.9400
      8 O8         -4.3517    0.6438   50.4627 O.2     1  ZINC001211202056   -0.9300
      9 N9         -6.2226    2.1572   49.9151 N.am    1  ZINC001211202056   -1.0500
     10 C10        -7.0726    1.7871   50.9612 C.ar    1  ZINC001211202056    0.1600
     11 C11        -7.1922    0.4518   51.3354 C.ar    1  ZINC001211202056   -0.1200
     12 C12        -8.0474    0.1342   52.3788 C.ar    1  ZINC001211202056   -0.0800
     13 C13        -8.7482    1.1445   53.0091 C.ar    1  ZINC001211202056    0.0400
     14 C14        -9.6797    0.8058   54.1444 C.3     1  ZINC001211202056    0.5300
     15 F15       -10.5197   -0.2451   53.7607 F       1  ZINC001211202056   -0.1700
     16 F16        -8.9318    0.4207   55.2623 F       1  ZINC001211202056   -0.1600
     17 F17       -10.4523    1.9275   54.4642 F       1  ZINC001211202056   -0.1700
     18 N18        -8.6133    2.4014   52.6317 N.ar    1  ZINC001211202056   -0.4100
     19 C19        -7.8073    2.7481   51.6474 C.ar    1  ZINC001211202056    0.1600
     20 Cl20       -7.6710    4.4189   51.1958 Cl      1  ZINC001211202056    0.0000
     21 C21        -4.6642    2.7714   52.6976 C.ar    1  ZINC001211202056    0.0400
     22 C22        -4.2807    3.5447   53.7764 C.ar    1  ZINC001211202056   -0.1400
     23 Cl23       -4.9925    3.2740   55.3366 Cl      1  ZINC001211202056   -0.0500
     24 H24        -3.3406    5.1839   55.5691 H       1  ZINC001211202056    0.4100
     25 H25        -2.2827    6.0331   54.5779 H       1  ZINC001211202056    0.4100
     26 H26        -2.0268    5.5362   52.2256 H       1  ZINC001211202056    0.1400
     27 H27        -2.7096    4.1448   50.3135 H       1  ZINC001211202056    0.1500
     28 H28        -6.5929    2.5100   49.0910 H       1  ZINC001211202056    0.4400
     29 H29        -6.6325   -0.3180   50.8249 H       1  ZINC001211202056    0.2000
     30 H30        -8.1649   -0.8915   52.6955 H       1  ZINC001211202056    0.1700
     31 H31        -5.4040    1.9950   52.8259 H       1  ZINC001211202056    0.1500
@<TRIPOS>BOND
     1     1     2    1
     2     1    24    1
     3     1    25    1
     4     2    22   ar
     5     2     3   ar
     6     3     4   ar
     7     3    26    1
     8     4     5   ar
     9     4    27    1
    10     5     6    1
    11     5    21   ar
    12     6     7    2
    13     6     8    2
    14     6     9   am
    15     9    10    1
    16     9    28    1
    17    10    19   ar
    18    10    11   ar
    19    11    12   ar
    20    11    29    1
    21    12    13   ar
    22    12    30    1
    23    13    14    1
    24    13    18   ar
    25    14    15    1
    26    14    16    1
    27    14    17    1
    28    18    19   ar
    29    19    20    1
    30    21    22   ar
    31    21    31    1
    32    22    23    1
@<TRIPOS>SUBSTRUCTURE
     1 ZINC001211202056        1 TEMP              0 ****  ****    0 ROOT


##########                                Name:    ZINC000371438955
##########                DOCK_Rotatable_Bonds:                   4
##########                         Heavy_Atoms:                  25
##########                    Molecular_Weight:             387.499
##########                DOCK_Rotatable_Bonds:                   4
##########                       Formal_Charge:          -0.0299995
##########                     HBond_Acceptors:                   9
##########                        HBond_Donors:                   1
##########                         Heavy_Atoms:                  25
##########                          Grid_Score:          -27.294401
##########                     Grid_vdw_energy:          -26.349707
##########                      Grid_es_energy:           -0.944695
##########           Internal_energy_repulsive:           44.064732

@<TRIPOS>MOLECULE
ZINC000371438955
 47 49 1 0 0
SMALL
USER_CHARGES


@<TRIPOS>ATOM
      1 C1        -11.0237   -1.8399   57.2956 C.3     1  ZINC000371438955   -0.6800
      2 S2        -11.4329   -3.4209   56.5058 S.o2    1  ZINC000371438955    2.6000
      3 O3        -10.9704   -3.4415   55.1623 O.2     1  ZINC000371438955   -0.9500
      4 O4        -11.1682   -4.5025   57.3885 O.2     1  ZINC000371438955   -0.9500
      5 N5        -13.0831   -3.3996   56.3692 N.am    1  ZINC000371438955   -0.9900
      6 C6        -13.7029   -2.3574   55.6024 C.3     1  ZINC000371438955    0.1300
      7 C7        -13.9134   -1.1481   56.5289 C.3     1  ZINC000371438955   -0.1700
      8 C8        -15.0815   -1.3270   57.4056 C.3     1  ZINC000371438955    0.1400
      9 N9        -14.9251   -2.5492   58.2292 N.am    1  ZINC000371438955   -0.6200
     10 C10       -14.5630   -2.4472   59.5235 C.2     1  ZINC000371438955    0.7100
     11 O11       -14.4346   -3.4494   60.1997 O.2     1  ZINC000371438955   -0.5800
     12 N12       -14.3432   -1.2340   60.0680 N.am    1  ZINC000371438955   -0.7400
     13 C13       -13.9495   -1.1230   61.4748 C.3     1  ZINC000371438955    0.2000
     14 H14       -14.2623   -2.0277   61.9962 H       1  ZINC000371438955    0.1100
     15 C15       -14.6691    0.0652   62.0886 C.3     1  ZINC000371438955   -0.1300
     16 C16       -14.2930    0.1637   63.5737 C.3     1  ZINC000371438955   -0.1100
     17 S17       -12.5778    0.7547   63.6592 S.3     1  ZINC000371438955   -0.1000
     18 C18       -11.7613   -0.2572   62.4663 C.ar    1  ZINC000371438955   -0.1100
     19 C19       -10.3635   -0.2669   62.4696 C.ar    1  ZINC000371438955    0.1100
     20 F20        -9.6910    0.4763   63.3755 F       1  ZINC000371438955   -0.1300
     21 C21        -9.6647   -1.0289   61.5565 C.ar    1  ZINC000371438955   -0.1300
     22 C22       -10.3578   -1.7859   60.6291 C.ar    1  ZINC000371438955   -0.1000
     23 C23       -11.7356   -1.7801   60.6259 C.ar    1  ZINC000371438955   -0.1000
     24 C24       -12.4544   -1.0189   61.5483 C.ar    1  ZINC000371438955   -0.0800
     25 C25       -15.1597   -3.8422   57.6497 C.3     1  ZINC000371438955    0.1000
     26 C26       -13.8754   -4.4660   57.0407 C.3     1  ZINC000371438955    0.0900
     27 H27       -11.3695   -1.0194   56.6669 H       1  ZINC000371438955    0.1300
     28 H28       -11.5118   -1.7827   58.2685 H       1  ZINC000371438955    0.1300
     29 H29        -9.9440   -1.7676   57.4260 H       1  ZINC000371438955    0.1300
     30 H30       -13.0557   -2.0767   54.7713 H       1  ZINC000371438955    0.0800
     31 H31       -14.6643   -2.7018   55.2216 H       1  ZINC000371438955    0.0800
     32 H32       -13.0244   -1.0138   57.1450 H       1  ZINC000371438955    0.0800
     33 H33       -14.0598   -0.2557   55.9202 H       1  ZINC000371438955    0.0900
     34 H34       -15.1773   -0.4607   58.0601 H       1  ZINC000371438955    0.0900
     35 H35       -15.9803   -1.4159   56.7953 H       1  ZINC000371438955    0.0700
     36 H36       -14.4456   -0.4345   59.5285 H       1  ZINC000371438955    0.4000
     37 H37       -14.3691    0.9786   61.5750 H       1  ZINC000371438955    0.0900
     38 H38       -15.7463   -0.0716   61.9934 H       1  ZINC000371438955    0.1000
     39 H39       -14.9537    0.8691   64.0776 H       1  ZINC000371438955    0.1200
     40 H40       -14.3707   -0.8177   64.0418 H       1  ZINC000371438955    0.1000
     41 H41        -8.5848   -1.0343   61.5654 H       1  ZINC000371438955    0.1400
     42 H42        -9.8189   -2.3813   59.9071 H       1  ZINC000371438955    0.1300
     43 H43       -12.2675   -2.3731   59.8967 H       1  ZINC000371438955    0.1400
     44 H44       -15.5447   -4.5096   58.4206 H       1  ZINC000371438955    0.0800
     45 H45       -15.9083   -3.7457   56.8634 H       1  ZINC000371438955    0.0900
     46 H46       -14.1517   -5.2323   56.3164 H       1  ZINC000371438955    0.0800
     47 H47       -13.2776   -4.9144   57.8343 H       1  ZINC000371438955    0.1000
@<TRIPOS>BOND
     1     1     2    1
     2     1    27    1
     3     1    28    1
     4     1    29    1
     5     2     3    2
     6     2     4    2
     7     2     5   am
     8     5    26    1
     9     5     6    1
    10     6     7    1
    11     6    30    1
    12     6    31    1
    13     7     8    1
    14     7    32    1
    15     7    33    1
    16     8     9    1
    17     8    34    1
    18     8    35    1
    19     9    10   am
    20     9    25    1
    21    10    11    2
    22    10    12   am
    23    12    13    1
    24    12    36    1
    25    13    14    1
    26    13    24    1
    27    13    15    1
    28    15    16    1
    29    15    37    1
    30    15    38    1
    31    16    17    1
    32    16    39    1
    33    16    40    1
    34    17    18    1
    35    18    24   ar
    36    18    19   ar
    37    19    20    1
    38    19    21   ar
    39    21    22   ar
    40    21    41    1
    41    22    23   ar
    42    22    42    1
    43    23    24   ar
    44    23    43    1
    45    25    26    1
    46    25    44    1
    47    25    45    1
    48    26    46    1
    49    26    47    1
@<TRIPOS>SUBSTRUCTURE
     1 ZINC000371438955        1 TEMP              0 ****  ****    0 ROOT


##########                                Name:    ZINC000426607143
##########                DOCK_Rotatable_Bonds:                   3
##########                         Heavy_Atoms:                  25
##########                    Molecular_Weight:             419.302
##########                DOCK_Rotatable_Bonds:                   3
##########                       Formal_Charge:         1.49012e-07
##########                     HBond_Acceptors:                   7
##########                        HBond_Donors:                   0
##########                         Heavy_Atoms:                  25
##########                          Grid_Score:          -27.214193
##########                     Grid_vdw_energy:          -28.441093
##########                      Grid_es_energy:            1.226900
##########           Internal_energy_repulsive:           11.615474

@<TRIPOS>MOLECULE
ZINC000426607143
 40 43 1 0 0
SMALL
USER_CHARGES


@<TRIPOS>ATOM
      1 C1         -5.9063    0.4620   50.7508 C.3     1  ZINC000426607143   -0.0900
      2 C2         -5.0917    1.7293   50.7140 C.2     1  ZINC000426607143    0.1600
      3 N3         -4.0713    1.8587   49.9226 N.2     1  ZINC000426607143   -0.4600
      4 S4         -3.4259    3.4065   50.1715 S.3     1  ZINC000426607143    0.2900
      5 C5         -4.5639    3.8819   51.3708 C.2     1  ZINC000426607143   -0.1300
      6 C6         -4.6266    5.2009   52.0970 C.3     1  ZINC000426607143   -0.0800
      7 C7         -5.4007    2.8162   51.5211 C.2     1  ZINC000426607143   -0.1200
      8 C8         -6.5384    2.8143   52.4726 C.2     1  ZINC000426607143    0.2500
      9 N9         -6.5190    3.2462   53.7074 N.2     1  ZINC000426607143   -0.3700
     10 O10        -7.6113    3.1048   54.2153 O.3     1  ZINC000426607143    0.0900
     11 C11        -8.4571    2.5563   53.3377 C.2     1  ZINC000426607143    0.2000
     12 C12        -9.9058    2.2199   53.5809 C.3     1  ZINC000426607143   -0.0300
     13 H13       -10.3150    2.8490   54.3713 H       1  ZINC000426607143    0.1600
     14 C14       -10.7253    2.3838   52.2799 C.3     1  ZINC000426607143   -0.1200
     15 C15       -11.7346    1.2200   52.3947 C.3     1  ZINC000426607143    0.1000
     16 N16       -11.0846    0.2209   53.2511 N.am    1  ZINC000426607143   -0.5800
     17 C17       -11.4830   -1.1175   53.3455 C.ar    1  ZINC000426607143    0.1700
     18 C18       -11.1373   -2.0182   52.3475 C.ar    1  ZINC000426607143   -0.1000
     19 C19       -11.5320   -3.3387   52.4435 C.ar    1  ZINC000426607143   -0.1000
     20 C20       -12.2711   -3.7638   53.5319 C.ar    1  ZINC000426607143   -0.1000
     21 C21       -12.6175   -2.8695   54.5282 C.ar    1  ZINC000426607143   -0.0900
     22 C22       -12.2207   -1.5489   54.4414 C.ar    1  ZINC000426607143   -0.0800
     23 Br23      -12.6947   -0.3264   55.8041 Br      1  ZINC000426607143   -0.0400
     24 C24       -10.0571    0.7572   53.9365 C.2     1  ZINC000426607143    0.5300
     25 O25        -9.3548    0.1543   54.7203 O.2     1  ZINC000426607143   -0.4900
     26 N26        -7.7919    2.3709   52.2248 N.2     1  ZINC000426607143   -0.4600
     27 H27        -6.7154    0.5289   50.0235 H       1  ZINC000426607143    0.0900
     28 H28        -5.2681   -0.3874   50.5071 H       1  ZINC000426607143    0.0800
     29 H29        -6.3247    0.3278   51.7484 H       1  ZINC000426607143    0.1100
     30 H30        -3.8199    5.8460   51.7491 H       1  ZINC000426607143    0.0800
     31 H31        -5.5857    5.6794   51.8990 H       1  ZINC000426607143    0.0900
     32 H32        -4.5196    5.0310   53.1684 H       1  ZINC000426607143    0.0900
     33 H33       -11.2387    3.3450   52.2607 H       1  ZINC000426607143    0.1100
     34 H34       -10.0907    2.2645   51.4016 H       1  ZINC000426607143    0.1000
     35 H35       -12.6596    1.5670   52.8552 H       1  ZINC000426607143    0.0900
     36 H36       -11.9376    0.7982   51.4103 H       1  ZINC000426607143    0.0900
     37 H37       -10.5606   -1.6871   51.4966 H       1  ZINC000426607143    0.1400
     38 H38       -11.2632   -4.0397   51.6672 H       1  ZINC000426607143    0.1400
     39 H39       -12.5789   -4.7965   53.6038 H       1  ZINC000426607143    0.1400
     40 H40       -13.1949   -3.2047   55.3771 H       1  ZINC000426607143    0.1400
@<TRIPOS>BOND
     1     1     2    1
     2     1    27    1
     3     1    28    1
     4     1    29    1
     5     2     7    1
     6     2     3    2
     7     3     4    1
     8     4     5    1
     9     5     6    1
    10     5     7    2
    11     6    30    1
    12     6    31    1
    13     6    32    1
    14     7     8    1
    15     8    26    1
    16     8     9    2
    17     9    10    1
    18    10    11    1
    19    11    12    1
    20    11    26    2
    21    12    13    1
    22    12    24    1
    23    12    14    1
    24    14    15    1
    25    14    33    1
    26    14    34    1
    27    15    16    1
    28    15    35    1
    29    15    36    1
    30    16    17    1
    31    16    24   am
    32    17    22   ar
    33    17    18   ar
    34    18    19   ar
    35    18    37    1
    36    19    20   ar
    37    19    38    1
    38    20    21   ar
    39    20    39    1
    40    21    22   ar
    41    21    40    1
    42    22    23    1
    43    24    25    2
@<TRIPOS>SUBSTRUCTURE
     1 ZINC000426607143        1 TEMP              0 ****  ****    0 ROOT


##########                                Name:    ZINC000616491533
##########                DOCK_Rotatable_Bonds:                   4
##########                         Heavy_Atoms:                  27
##########                    Molecular_Weight:             375.418
##########                DOCK_Rotatable_Bonds:                   4
##########                       Formal_Charge:           0.0299996
##########                     HBond_Acceptors:                   7
##########                        HBond_Donors:                   0
##########                         Heavy_Atoms:                  27
##########                          Grid_Score:          -27.203526
##########                     Grid_vdw_energy:          -26.529688
##########                      Grid_es_energy:           -0.673838
##########           Internal_energy_repulsive:           11.724767

@<TRIPOS>MOLECULE
ZINC000616491533
 50 53 1 0 0
SMALL
USER_CHARGES


@<TRIPOS>ATOM
      1 C1        -14.5401    0.1694   55.9969 C.3     1  ZINC000616491533   -0.1700
      2 C2        -13.5167    0.3268   57.1232 C.3     1  ZINC000616491533    0.1400
      3 H3        -13.7530    1.2093   57.7179 H       1  ZINC000616491533    0.0800
      4 C4        -13.5268   -0.9299   58.0214 C.3     1  ZINC000616491533   -0.1200
      5 C5        -12.3363   -1.7487   57.4800 C.3     1  ZINC000616491533   -0.0700
      6 C6        -11.3314   -0.6527   57.0767 C.3     1  ZINC000616491533    0.0900
      7 N7        -12.1651    0.4526   56.5568 N.am    1  ZINC000616491533   -0.6100
      8 C8        -11.7540    1.4119   55.7041 C.2     1  ZINC000616491533    0.6100
      9 O9        -12.5300    2.2741   55.3389 O.2     1  ZINC000616491533   -0.5200
     10 C10       -10.3638    1.4162   55.2140 C.2     1  ZINC000616491533   -0.2400
     11 C11        -9.9223    0.9356   53.9974 C.2     1  ZINC000616491533    0.0700
     12 C12       -10.7734    0.3086   52.9235 C.3     1  ZINC000616491533    0.3400
     13 F13       -11.1282   -0.9890   53.3077 F       1  ZINC000616491533   -0.1900
     14 F14       -11.9305    1.0732   52.7397 F       1  ZINC000616491533   -0.1600
     15 N15        -8.5920    1.1307   53.9470 N.pl3   1  ZINC000616491533   -0.2900
     16 C16        -7.7528    0.7831   52.8797 C.ar    1  ZINC000616491533    0.1300
     17 C17        -7.8486   -0.4753   52.3007 C.ar    1  ZINC000616491533   -0.1000
     18 C18        -7.0203   -0.8148   51.2490 C.ar    1  ZINC000616491533   -0.1000
     19 C19        -6.0958    0.0968   50.7729 C.ar    1  ZINC000616491533   -0.1000
     20 C20        -5.9979    1.3507   51.3475 C.ar    1  ZINC000616491533   -0.1000
     21 C21        -6.8278    1.6984   52.3953 C.ar    1  ZINC000616491533   -0.0900
     22 N22        -8.1880    1.7393   55.1406 N.2     1  ZINC000616491533   -0.2600
     23 C23        -9.2344    1.9185   55.8992 C.2     1  ZINC000616491533    0.0700
     24 C24       -11.7557   -2.6374   58.5704 C.3     1  ZINC000616491533   -0.1400
     25 C25       -10.6073   -3.4682   57.9870 C.3     1  ZINC000616491533    0.0600
     26 O26       -11.0854   -4.2105   56.8632 O.3     1  ZINC000616491533   -0.3800
     27 C27       -11.5635   -3.4025   55.7857 C.3     1  ZINC000616491533    0.0600
     28 C28       -12.7554   -2.5684   56.2683 C.3     1  ZINC000616491533   -0.1500
     29 H29       -14.2907   -0.7073   55.3992 H       1  ZINC000616491533    0.0600
     30 H30       -15.5351    0.0464   56.4246 H       1  ZINC000616491533    0.0600
     31 H31       -14.5237    1.0570   55.3644 H       1  ZINC000616491533    0.0800
     32 H32       -13.3664   -0.6596   59.0651 H       1  ZINC000616491533    0.0800
     33 H33       -14.4596   -1.4812   57.9034 H       1  ZINC000616491533    0.0900
     34 H34       -10.7626   -0.3211   57.9453 H       1  ZINC000616491533    0.0800
     35 H35       -10.6605   -1.0200   56.3001 H       1  ZINC000616491533    0.0800
     36 H36       -10.2113    0.2703   51.9904 H       1  ZINC000616491533    0.1400
     37 H37        -8.5699   -1.1879   52.6725 H       1  ZINC000616491533    0.1300
     38 H38        -7.0943   -1.7935   50.7982 H       1  ZINC000616491533    0.1400
     39 H39        -5.4486   -0.1714   49.9509 H       1  ZINC000616491533    0.1300
     40 H40        -5.2751    2.0605   50.9735 H       1  ZINC000616491533    0.1400
     41 H41        -6.7509    2.6779   52.8438 H       1  ZINC000616491533    0.1300
     42 H42        -9.2361    2.3668   56.8817 H       1  ZINC000616491533    0.2100
     43 H43       -11.3794   -2.0170   59.3838 H       1  ZINC000616491533    0.0800
     44 H44       -12.5313   -3.3035   58.9486 H       1  ZINC000616491533    0.0800
     45 H45        -9.8029   -2.8047   57.6694 H       1  ZINC000616491533    0.0500
     46 H46       -10.2341   -4.1563   58.7456 H       1  ZINC000616491533    0.1000
     47 H47       -10.7678   -2.7386   55.4479 H       1  ZINC000616491533    0.0500
     48 H48       -11.8776   -4.0434   54.9619 H       1  ZINC000616491533    0.1000
     49 H49       -13.5759   -3.2312   56.5433 H       1  ZINC000616491533    0.0800
     50 H50       -13.0785   -1.8997   55.4706 H       1  ZINC000616491533    0.0800
@<TRIPOS>BOND
     1     1     2    1
     2     1    29    1
     3     1    30    1
     4     1    31    1
     5     2     3    1
     6     2     7    1
     7     2     4    1
     8     4     5    1
     9     4    32    1
    10     4    33    1
    11     5    28    1
    12     5     6    1
    13     5    24    1
    14     6     7    1
    15     6    34    1
    16     6    35    1
    17     7     8   am
    18     8     9    2
    19     8    10    1
    20    10    23    1
    21    10    11    2
    22    11    12    1
    23    11    15    1
    24    12    13    1
    25    12    14    1
    26    12    36    1
    27    15    16    1
    28    15    22    1
    29    16    21   ar
    30    16    17   ar
    31    17    18   ar
    32    17    37    1
    33    18    19   ar
    34    18    38    1
    35    19    20   ar
    36    19    39    1
    37    20    21   ar
    38    20    40    1
    39    21    41    1
    40    22    23    2
    41    23    42    1
    42    24    25    1
    43    24    43    1
    44    24    44    1
    45    25    26    1
    46    25    45    1
    47    25    46    1
    48    26    27    1
    49    27    28    1
    50    27    47    1
    51    27    48    1
    52    28    49    1
    53    28    50    1
@<TRIPOS>SUBSTRUCTURE
     1 ZINC000616491533        1 TEMP              0 ****  ****    0 ROOT


##########                                Name:    ZINC000004040798
##########                DOCK_Rotatable_Bonds:                   3
##########                         Heavy_Atoms:                  22
##########                    Molecular_Weight:             361.151
##########                DOCK_Rotatable_Bonds:                   3
##########                       Formal_Charge:           0.0200003
##########                     HBond_Acceptors:                   6
##########                        HBond_Donors:                   1
##########                         Heavy_Atoms:                  22
##########                          Grid_Score:          -27.190609
##########                     Grid_vdw_energy:          -26.282616
##########                      Grid_es_energy:           -0.907994
##########           Internal_energy_repulsive:            3.141367

@<TRIPOS>MOLECULE
ZINC000004040798
 31 33 1 0 0
SMALL
USER_CHARGES


@<TRIPOS>ATOM
      1 O1        -10.2163   -2.4086   53.0532 O.2     1  ZINC000004040798   -0.4800
      2 C2        -10.0550   -1.2027   53.0449 C.2     1  ZINC000004040798    0.6100
      3 N3        -10.9622   -0.3974   53.6322 N.am    1  ZINC000004040798   -0.6600
      4 C4        -12.0918   -0.9475   54.2463 C.ar    1  ZINC000004040798    0.2300
      5 C5        -12.0970   -1.1776   55.6156 C.ar    1  ZINC000004040798   -0.1300
      6 C6        -13.2143   -1.7213   56.2191 C.ar    1  ZINC000004040798   -0.0100
      7 C7        -14.3272   -2.0364   55.4616 C.ar    1  ZINC000004040798   -0.0600
      8 N8        -15.5224   -2.6187   56.1122 N.pl3   1  ZINC000004040798    0.0300
      9 O9        -15.5249   -2.8199   57.3135 O.2     1  ZINC000004040798   -0.1500
     10 O10       -16.5037   -2.8968   55.4462 O.2     1  ZINC000004040798   -0.1500
     11 C11       -14.3264   -1.8082   54.0976 C.ar    1  ZINC000004040798    0.0000
     12 C12       -13.2142   -1.2599   53.4881 C.ar    1  ZINC000004040798   -0.1400
     13 Br13      -13.2137   -0.9482   51.6230 Br      1  ZINC000004040798    0.0000
     14 C14        -8.8681   -0.6247   52.3997 C.2     1  ZINC000004040798   -0.0500
     15 C15        -8.5079    0.6838   52.4545 C.2     1  ZINC000004040798   -0.0800
     16 C16        -7.2747    0.7974   51.6765 C.ar    1  ZINC000004040798   -0.1500
     17 C17        -6.4209    1.8546   51.3542 C.ar    1  ZINC000004040798   -0.0500
     18 C18        -5.3164    1.6223   50.5835 C.ar    1  ZINC000004040798   -0.1400
     19 C19        -5.0388    0.3440   50.1195 C.ar    1  ZINC000004040798   -0.0700
     20 C20        -5.8688   -0.7127   50.4264 C.ar    1  ZINC000004040798   -0.1100
     21 C21        -6.9978   -0.5011   51.2090 C.ar    1  ZINC000004040798    0.0800
     22 O22        -7.9683   -1.3150   51.6682 O.3     1  ZINC000004040798   -0.1900
     23 H23       -10.8314    0.5638   53.6291 H       1  ZINC000004040798    0.4300
     24 H24       -11.2280   -0.9323   56.2081 H       1  ZINC000004040798    0.1800
     25 H25       -13.2185   -1.9008   57.2841 H       1  ZINC000004040798    0.1700
     26 H26       -15.1973   -2.0555   53.5086 H       1  ZINC000004040798    0.1700
     27 H27        -9.0273    1.4793   52.9681 H       1  ZINC000004040798    0.1800
     28 H28        -6.6326    2.8512   51.7121 H       1  ZINC000004040798    0.1400
     29 H29        -4.6554    2.4390   50.3336 H       1  ZINC000004040798    0.1400
     30 H30        -4.1627    0.1755   49.5108 H       1  ZINC000004040798    0.1400
     31 H31        -5.6424   -1.7030   50.0598 H       1  ZINC000004040798    0.1400
@<TRIPOS>BOND
     1     1     2    2
     2     2     3   am
     3     2    14    1
     4     3     4    1
     5     3    23    1
     6     4    12   ar
     7     4     5   ar
     8     5     6   ar
     9     5    24    1
    10     6     7   ar
    11     6    25    1
    12     7     8    1
    13     7    11   ar
    14     8     9    2
    15     8    10    2
    16    11    12   ar
    17    11    26    1
    18    12    13    1
    19    14    22    1
    20    14    15    2
    21    15    16    1
    22    15    27    1
    23    16    21   ar
    24    16    17   ar
    25    17    18   ar
    26    17    28    1
    27    18    19   ar
    28    18    29    1
    29    19    20   ar
    30    19    30    1
    31    20    21   ar
    32    20    31    1
    33    21    22    1
@<TRIPOS>SUBSTRUCTURE
     1 ZINC000004040798        1 TEMP              0 ****  ****    0 ROOT


##########                                Name:    ZINC000864477301
##########                DOCK_Rotatable_Bonds:                   6
##########                         Heavy_Atoms:                  26
##########                    Molecular_Weight:             393.891
##########                DOCK_Rotatable_Bonds:                   6
##########                       Formal_Charge:         -0.00999978
##########                     HBond_Acceptors:                   7
##########                        HBond_Donors:                   1
##########                         Heavy_Atoms:                  26
##########                          Grid_Score:          -27.190559
##########                     Grid_vdw_energy:          -25.916138
##########                      Grid_es_energy:           -1.274421
##########           Internal_energy_repulsive:            9.205259

@<TRIPOS>MOLECULE
ZINC000864477301
 46 47 1 0 0
SMALL
USER_CHARGES


@<TRIPOS>ATOM
      1 C1        -14.3819   -3.9358   55.9232 C.3     1  ZINC000864477301   -0.1500
      2 C2        -13.7042   -4.6342   57.1038 C.3     1  ZINC000864477301    0.0600
      3 O3        -12.3225   -4.9253   56.7657 O.3     1  ZINC000864477301   -0.3500
      4 C4        -11.3718   -4.3376   57.5176 C.2     1  ZINC000864477301    0.5100
      5 O5        -10.5817   -5.0192   58.1394 O.2     1  ZINC000864477301   -0.5000
      6 C6        -11.2902   -2.8642   57.5862 C.ar    1  ZINC000864477301   -0.1400
      7 C7        -11.2049   -2.1114   56.4136 C.ar    1  ZINC000864477301   -0.0300
      8 C8        -11.1288   -0.7356   56.4849 C.ar    1  ZINC000864477301   -0.1500
      9 C9        -11.1366   -0.1021   57.7147 C.ar    1  ZINC000864477301   -0.0100
     10 C10       -11.2209   -0.8423   58.8810 C.ar    1  ZINC000864477301   -0.4900
     11 S11       -11.2299   -0.0250   60.4420 S.o     1  ZINC000864477301    1.3800
     12 O12       -10.7582   -1.0284   61.3309 O.2     1  ZINC000864477301   -0.8100
     13 C13       -12.9955    0.2655   60.7403 C.3     1  ZINC000864477301   -0.4600
     14 H14       -13.3816    0.9565   59.9909 H       1  ZINC000864477301    0.1400
     15 C15       -13.7530   -1.0606   60.6498 C.3     1  ZINC000864477301   -0.1400
     16 C16       -13.1821    0.8579   62.1133 C.2     1  ZINC000864477301    0.5500
     17 O17       -13.5128    2.0188   62.2331 O.2     1  ZINC000864477301   -0.5100
     18 N18       -12.9816    0.0980   63.2081 N.am    1  ZINC000864477301   -0.6800
     19 C19       -13.1550    0.6483   64.4835 C.ar    1  ZINC000864477301    0.1400
     20 C20       -14.2684    0.3113   65.2410 C.ar    1  ZINC000864477301   -0.0600
     21 C21       -15.2925   -0.6477   64.6911 C.3     1  ZINC000864477301   -0.1100
     22 C22       -14.4366    0.8557   66.4996 C.ar    1  ZINC000864477301   -0.1100
     23 C23       -13.4977    1.7353   67.0056 C.ar    1  ZINC000864477301   -0.1000
     24 C24       -12.3872    2.0740   66.2539 C.ar    1  ZINC000864477301   -0.1100
     25 C25       -12.2098    1.5288   64.9967 C.ar    1  ZINC000864477301   -0.0200
     26 Cl26      -10.8156    1.9537   64.0538 Cl      1  ZINC000864477301   -0.0600
     27 C27       -11.3037   -2.2178   58.8240 C.ar    1  ZINC000864477301    0.0100
     28 H28       -13.8583   -3.0058   55.7019 H       1  ZINC000864477301    0.0700
     29 H29       -14.3511   -4.5869   55.0495 H       1  ZINC000864477301    0.0700
     30 H30       -15.4191   -3.7172   56.1770 H       1  ZINC000864477301    0.0800
     31 H31       -13.7350   -3.9832   57.9774 H       1  ZINC000864477301    0.0700
     32 H32       -14.2278   -5.5642   57.3251 H       1  ZINC000864477301    0.0700
     33 H33       -11.1981   -2.6047   55.4529 H       1  ZINC000864477301    0.1400
     34 H34       -11.0628   -0.1520   55.5786 H       1  ZINC000864477301    0.1400
     35 H35       -11.0760    0.9750   57.7649 H       1  ZINC000864477301    0.1500
     36 H36       -14.8139   -0.8860   60.8290 H       1  ZINC000864477301    0.0700
     37 H37       -13.6180   -1.4892   59.6566 H       1  ZINC000864477301    0.0700
     38 H38       -13.3669   -1.7517   61.3991 H       1  ZINC000864477301    0.0700
     39 H39       -12.7171   -0.8303   63.1123 H       1  ZINC000864477301    0.4100
     40 H40       -15.0220   -1.6666   64.9686 H       1  ZINC000864477301    0.0800
     41 H41       -16.2730   -0.4074   65.1021 H       1  ZINC000864477301    0.0700
     42 H42       -15.3232   -0.5632   63.6048 H       1  ZINC000864477301    0.0700
     43 H43       -15.3029    0.5940   67.0890 H       1  ZINC000864477301    0.1400
     44 H44       -13.6319    2.1592   67.9897 H       1  ZINC000864477301    0.1400
     45 H45       -11.6557    2.7618   66.6519 H       1  ZINC000864477301    0.1400
     46 H46       -11.3699   -2.7943   59.7349 H       1  ZINC000864477301    0.1400
@<TRIPOS>BOND
     1     1     2    1
     2     1    28    1
     3     1    29    1
     4     1    30    1
     5     2     3    1
     6     2    31    1
     7     2    32    1
     8     3     4    1
     9     4     5    2
    10     4     6    1
    11     6    27   ar
    12     6     7   ar
    13     7     8   ar
    14     7    33    1
    15     8     9   ar
    16     8    34    1
    17     9    10   ar
    18     9    35    1
    19    10    11    1
    20    10    27   ar
    21    11    12    2
    22    11    13    1
    23    13    14    1
    24    13    15    1
    25    13    16    1
    26    15    36    1
    27    15    37    1
    28    15    38    1
    29    16    17    2
    30    16    18   am
    31    18    19    1
    32    18    39    1
    33    19    25   ar
    34    19    20   ar
    35    20    21    1
    36    20    22   ar
    37    21    40    1
    38    21    41    1
    39    21    42    1
    40    22    23   ar
    41    22    43    1
    42    23    24   ar
    43    23    44    1
    44    24    25   ar
    45    24    45    1
    46    25    26    1
    47    27    46    1
@<TRIPOS>SUBSTRUCTURE
     1 ZINC000864477301        1 TEMP              0 ****  ****    0 ROOT


##########                                Name:    ZINC000618094467
##########                DOCK_Rotatable_Bonds:                   5
##########                         Heavy_Atoms:                  27
##########                    Molecular_Weight:             370.492
##########                DOCK_Rotatable_Bonds:                   5
##########                       Formal_Charge:                0.03
##########                     HBond_Acceptors:                   5
##########                        HBond_Donors:                   0
##########                         Heavy_Atoms:                  27
##########                          Grid_Score:          -27.184528
##########                     Grid_vdw_energy:          -26.080414
##########                      Grid_es_energy:           -1.104115
##########           Internal_energy_repulsive:           78.163544

@<TRIPOS>MOLECULE
ZINC000618094467
 57 59 1 0 0
SMALL
USER_CHARGES


@<TRIPOS>ATOM
      1 C1        -15.9827   -0.8599   56.8448 C.3     1  ZINC000618094467   -0.1500
      2 C2        -16.0565   -1.7683   58.0738 C.3     1  ZINC000618094467   -0.1000
      3 C3        -14.8872   -1.4561   59.0097 C.3     1  ZINC000618094467   -0.1100
      4 H4        -14.9420   -0.4140   59.3246 H       1  ZINC000618094467    0.1000
      5 C5        -14.9610   -2.3646   60.2387 C.3     1  ZINC000618094467   -0.1500
      6 C6        -13.5870   -1.6946   58.2862 C.2     1  ZINC000618094467    0.5200
      7 O7        -13.5520   -2.4439   57.3332 O.2     1  ZINC000618094467   -0.5000
      8 N8        -12.4631   -1.0752   58.6980 N.am    1  ZINC000618094467   -0.6100
      9 C9        -12.4721   -0.1631   59.8468 C.3     1  ZINC000618094467    0.1400
     10 C10       -11.2832   -0.4471   60.7300 C.ar    1  ZINC000618094467   -0.1000
     11 C11       -11.2525    0.1454   61.9848 C.ar    1  ZINC000618094467   -0.1100
     12 C12       -10.1863   -0.0683   62.8344 C.ar    1  ZINC000618094467   -0.1200
     13 C13        -9.1406   -0.8777   62.4317 C.ar    1  ZINC000618094467   -0.1100
     14 C14        -9.1721   -1.4703   61.1864 C.ar    1  ZINC000618094467   -0.1200
     15 C15       -10.2471   -1.2618   60.3313 C.ar    1  ZINC000618094467   -0.0600
     16 C16       -10.2256   -1.9633   58.9988 C.3     1  ZINC000618094467   -0.0800
     17 C17       -11.1760   -1.2917   58.0168 C.3     1  ZINC000618094467    0.1200
     18 H18       -10.7645   -0.3324   57.7027 H       1  ZINC000618094467    0.1000
     19 C19       -11.3771   -2.1781   56.8147 C.2     1  ZINC000618094467    0.5500
     20 O20       -11.1271   -3.3627   56.8862 O.2     1  ZINC000618094467   -0.5200
     21 N21       -11.8347   -1.6544   55.6603 N.am    1  ZINC000618094467   -0.6100
     22 C22       -12.1343   -0.2200   55.5626 C.3     1  ZINC000618094467    0.1200
     23 C23       -11.2954    0.3835   54.4290 C.3     1  ZINC000618094467   -0.1600
     24 H24       -11.6411    1.3949   54.2150 H       1  ZINC000618094467    0.1100
     25 C25        -9.8223    0.4193   54.8411 C.3     1  ZINC000618094467   -0.1400
     26 C26       -11.4602   -0.4821   53.1992 C.2     1  ZINC000618094467    0.3700
     27 O27       -11.7924    0.0005   52.1432 O.2     1  ZINC000618094467   -0.4400
     28 C28       -11.1981   -1.9668   53.3242 C.3     1  ZINC000618094467   -0.1600
     29 H29       -10.1405   -2.1372   53.5258 H       1  ZINC000618094467    0.1100
     30 C30       -11.5948   -2.6712   52.0252 C.3     1  ZINC000618094467   -0.1400
     31 C31       -12.0337   -2.5104   54.4837 C.3     1  ZINC000618094467    0.1400
     32 H32       -15.0422   -1.0324   56.3214 H       1  ZINC000618094467    0.0500
     33 H33       -16.8158   -1.0823   56.1781 H       1  ZINC000618094467    0.0600
     34 H34       -16.0374    0.1823   57.1596 H       1  ZINC000618094467    0.0600
     35 H35       -16.9969   -1.5956   58.5972 H       1  ZINC000618094467    0.0700
     36 H36       -16.0017   -2.8104   57.7590 H       1  ZINC000618094467    0.0700
     37 H37       -15.0452   -3.4030   59.9183 H       1  ZINC000618094467    0.0700
     38 H38       -14.0581   -2.2408   60.8367 H       1  ZINC000618094467    0.0700
     39 H39       -15.8323   -2.0970   60.8365 H       1  ZINC000618094467    0.0700
     40 H40       -12.4231    0.8666   59.4928 H       1  ZINC000618094467    0.0900
     41 H41       -13.3901   -0.3068   60.4168 H       1  ZINC000618094467    0.1100
     42 H42       -12.0690    0.7790   62.2985 H       1  ZINC000618094467    0.1300
     43 H43       -10.1687    0.3950   63.8098 H       1  ZINC000618094467    0.1300
     44 H44        -8.3012   -1.0455   63.0901 H       1  ZINC000618094467    0.1200
     45 H45        -8.3537   -2.1017   60.8732 H       1  ZINC000618094467    0.1200
     46 H46        -9.2132   -1.9361   58.5956 H       1  ZINC000618094467    0.0900
     47 H47       -10.5285   -3.0014   59.1352 H       1  ZINC000618094467    0.1000
     48 H48       -13.1937   -0.0819   55.3466 H       1  ZINC000618094467    0.0700
     49 H49       -11.8841    0.2705   56.5033 H       1  ZINC000618094467    0.0900
     50 H50        -9.4540   -0.5995   54.9620 H       1  ZINC000618094467    0.0600
     51 H51        -9.2417    0.9265   54.0706 H       1  ZINC000618094467    0.0600
     52 H52        -9.7218    0.9563   55.7843 H       1  ZINC000618094467    0.0700
     53 H53       -11.0075   -2.2687   51.1998 H       1  ZINC000618094467    0.0700
     54 H54       -11.4047   -3.7404   52.1189 H       1  ZINC000618094467    0.0700
     55 H55       -12.6546   -2.5062   51.8313 H       1  ZINC000618094467    0.0600
     56 H56       -11.7201   -3.5285   54.7142 H       1  ZINC000618094467    0.1100
     57 H57       -13.0883   -2.5042   54.2085 H       1  ZINC000618094467    0.0700
@<TRIPOS>BOND
     1     1     2    1
     2     1    32    1
     3     1    33    1
     4     1    34    1
     5     2     3    1
     6     2    35    1
     7     2    36    1
     8     3     4    1
     9     3     5    1
    10     3     6    1
    11     5    37    1
    12     5    38    1
    13     5    39    1
    14     6     7    2
    15     6     8   am
    16     8    17    1
    17     8     9    1
    18     9    10    1
    19     9    40    1
    20     9    41    1
    21    10    15   ar
    22    10    11   ar
    23    11    12   ar
    24    11    42    1
    25    12    13   ar
    26    12    43    1
    27    13    14   ar
    28    13    44    1
    29    14    15   ar
    30    14    45    1
    31    15    16    1
    32    16    17    1
    33    16    46    1
    34    16    47    1
    35    17    18    1
    36    17    19    1
    37    19    20    2
    38    19    21   am
    39    21    31    1
    40    21    22    1
    41    22    23    1
    42    22    48    1
    43    22    49    1
    44    23    24    1
    45    23    25    1
    46    23    26    1
    47    25    50    1
    48    25    51    1
    49    25    52    1
    50    26    27    2
    51    26    28    1
    52    28    29    1
    53    28    30    1
    54    28    31    1
    55    30    53    1
    56    30    54    1
    57    30    55    1
    58    31    56    1
    59    31    57    1
@<TRIPOS>SUBSTRUCTURE
     1 ZINC000618094467        1 TEMP              0 ****  ****    0 ROOT


##########                                Name:    ZINC000179211660
##########                DOCK_Rotatable_Bonds:                   6
##########                         Heavy_Atoms:                  23
##########                    Molecular_Weight:             385.208
##########                DOCK_Rotatable_Bonds:                   6
##########                       Formal_Charge:        -1.78814e-07
##########                     HBond_Acceptors:                   6
##########                        HBond_Donors:                   1
##########                         Heavy_Atoms:                  23
##########                          Grid_Score:          -27.160898
##########                     Grid_vdw_energy:          -27.192719
##########                      Grid_es_energy:            0.031820
##########           Internal_energy_repulsive:           15.784937

@<TRIPOS>MOLECULE
ZINC000179211660
 38 39 1 0 0
SMALL
USER_CHARGES


@<TRIPOS>ATOM
      1 C1         -9.0414    0.3615   64.0757 C.3     1  ZINC000179211660    0.0300
      2 O2         -9.8234   -0.1269   62.9839 O.3     1  ZINC000179211660   -0.2700
      3 C3         -9.9936    0.7078   61.9250 C.ar    1  ZINC000179211660    0.1500
      4 C4         -9.5127    2.0077   61.9806 C.ar    1  ZINC000179211660   -0.2200
      5 C5         -9.6866    2.8541   60.9025 C.ar    1  ZINC000179211660   -0.0700
      6 C6        -10.3396    2.4067   59.7692 C.ar    1  ZINC000179211660   -0.1700
      7 C7        -10.8204    1.1114   59.7114 C.ar    1  ZINC000179211660   -0.0700
      8 C8        -10.6437    0.2593   60.7841 C.ar    1  ZINC000179211660   -0.1500
      9 C9        -11.1674   -1.1523   60.7203 C.3     1  ZINC000179211660    0.1800
     10 N10       -10.1762   -2.0119   60.0686 N.am    1  ZINC000179211660   -0.6200
     11 C11        -9.1406   -2.6718   60.8675 C.3     1  ZINC000179211660    0.0700
     12 C12       -10.2169   -2.1956   58.7340 C.2     1  ZINC000179211660    0.7000
     13 O13        -9.3952   -2.9102   58.1933 O.2     1  ZINC000179211660   -0.5300
     14 N14       -11.1686   -1.5871   57.9988 N.am    1  ZINC000179211660   -0.6800
     15 C15       -11.2111   -1.7780   56.6115 C.ar    1  ZINC000179211660    0.1900
     16 C16       -10.8186   -0.7574   55.7574 C.ar    1  ZINC000179211660   -0.1400
     17 C17       -10.8610   -0.9486   54.3876 C.ar    1  ZINC000179211660    0.1500
     18 F18       -10.4789    0.0447   53.5553 F       1  ZINC000179211660   -0.1100
     19 C19       -11.2944   -2.1578   53.8690 C.ar    1  ZINC000179211660   -0.1300
     20 Br20      -11.3505   -2.4159   51.9965 Br      1  ZINC000179211660   -0.0100
     21 C21       -11.6859   -3.1771   54.7188 C.ar    1  ZINC000179211660   -0.0700
     22 C22       -11.6412   -2.9925   56.0883 C.ar    1  ZINC000179211660    0.0600
     23 F23       -12.0236   -3.9883   56.9174 F       1  ZINC000179211660   -0.1300
     24 H24        -8.9848   -0.4016   64.8520 H       1  ZINC000179211660    0.1000
     25 H25        -8.0369    0.5990   63.7256 H       1  ZINC000179211660    0.0500
     26 H26        -9.5063    1.2596   64.4825 H       1  ZINC000179211660    0.0500
     27 H27        -9.0031    2.3579   62.8661 H       1  ZINC000179211660    0.1300
     28 H28        -9.3123    3.8663   60.9455 H       1  ZINC000179211660    0.1200
     29 H29       -10.4749    3.0699   58.9277 H       1  ZINC000179211660    0.1200
     30 H30       -11.3305    0.7643   58.8250 H       1  ZINC000179211660    0.1300
     31 H31       -11.3557   -1.5159   61.7304 H       1  ZINC000179211660    0.0900
     32 H32       -12.0955   -1.1701   60.1489 H       1  ZINC000179211660    0.1000
     33 H33        -9.5013   -3.6464   61.1962 H       1  ZINC000179211660    0.0600
     34 H34        -8.2429   -2.8015   60.2630 H       1  ZINC000179211660    0.0600
     35 H35        -8.9071   -2.0584   61.7378 H       1  ZINC000179211660    0.0800
     36 H36       -11.8242   -1.0170   58.4302 H       1  ZINC000179211660    0.4100
     37 H37       -10.4806    0.1854   56.1613 H       1  ZINC000179211660    0.1800
     38 H38       -12.0234   -4.1189   54.3120 H       1  ZINC000179211660    0.1600
@<TRIPOS>BOND
     1     1     2    1
     2     1    24    1
     3     1    25    1
     4     1    26    1
     5     2     3    1
     6     3     8   ar
     7     3     4   ar
     8     4     5   ar
     9     4    27    1
    10     5     6   ar
    11     5    28    1
    12     6     7   ar
    13     6    29    1
    14     7     8   ar
    15     7    30    1
    16     8     9    1
    17     9    10    1
    18     9    31    1
    19     9    32    1
    20    10    11    1
    21    10    12   am
    22    11    33    1
    23    11    34    1
    24    11    35    1
    25    12    13    2
    26    12    14   am
    27    14    15    1
    28    14    36    1
    29    15    22   ar
    30    15    16   ar
    31    16    17   ar
    32    16    37    1
    33    17    18    1
    34    17    19   ar
    35    19    20    1
    36    19    21   ar
    37    21    22   ar
    38    21    38    1
    39    22    23    1
@<TRIPOS>SUBSTRUCTURE
     1 ZINC000179211660        1 TEMP              0 ****  ****    0 ROOT


##########                                Name:    ZINC001456096501
##########                DOCK_Rotatable_Bonds:                   7
##########                         Heavy_Atoms:                  24
##########                    Molecular_Weight:             333.431
##########                DOCK_Rotatable_Bonds:                   7
##########                       Formal_Charge:          -0.0200003
##########                     HBond_Acceptors:                   6
##########                        HBond_Donors:                   0
##########                         Heavy_Atoms:                  24
##########                          Grid_Score:          -27.105488
##########                     Grid_vdw_energy:          -26.477732
##########                      Grid_es_energy:           -0.627756
##########           Internal_energy_repulsive:          128.083359

@<TRIPOS>MOLECULE
ZINC001456096501
 51 52 1 0 0
SMALL
USER_CHARGES


@<TRIPOS>ATOM
      1 C1        -10.2825   -4.5008   58.0390 C.3     1  ZINC001456096501    0.0400
      2 O2        -10.9779   -3.6536   57.1221 O.3     1  ZINC001456096501   -0.2900
      3 C3        -12.0750   -4.1699   56.5189 C.ar    1  ZINC001456096501    0.3700
      4 N4        -12.8583   -5.0033   57.1818 N.ar    1  ZINC001456096501   -0.5400
      5 C5        -13.9367   -5.5290   56.6331 C.ar    1  ZINC001456096501    0.1600
      6 C6        -14.2969   -5.2290   55.3319 C.ar    1  ZINC001456096501   -0.2200
      7 C7        -13.5127   -4.3621   54.5913 C.ar    1  ZINC001456096501   -0.0200
      8 C8        -12.3766   -3.8125   55.1959 C.ar    1  ZINC001456096501   -0.2000
      9 C9        -11.5058   -2.8822   54.4523 C.2     1  ZINC001456096501    0.5900
     10 O10       -10.7340   -3.3093   53.6156 O.2     1  ZINC001456096501   -0.5100
     11 N11       -11.5660   -1.5588   54.7006 N.am    1  ZINC001456096501   -0.6200
     12 C12       -12.4492   -0.9102   55.6807 C.3     1  ZINC001456096501    0.1000
     13 C13       -12.1890    0.6086   55.5972 C.3     1  ZINC001456096501   -0.1200
     14 C14       -11.5830    0.7800   54.1793 C.3     1  ZINC001456096501   -0.1200
     15 H15       -12.3664    0.8312   53.4231 H       1  ZINC001456096501    0.0900
     16 C16       -10.6803    2.0137   54.1141 C.3     1  ZINC001456096501    0.1200
     17 N17       -11.1190    2.8823   53.0190 N.am    1  ZINC001456096501   -0.6200
     18 C18       -12.3628    3.6464   53.1433 C.3     1  ZINC001456096501    0.0600
     19 C19       -10.3783    2.9787   51.8972 C.2     1  ZINC001456096501    0.5200
     20 O20        -9.3486    2.3463   51.7941 O.2     1  ZINC001456096501   -0.5300
     21 C21       -10.8296    3.8723   50.7707 C.3     1  ZINC001456096501   -0.0800
     22 C22       -12.0390    3.2445   50.0749 C.3     1  ZINC001456096501   -0.1300
     23 C23       -11.2177    5.2423   51.3306 C.3     1  ZINC001456096501   -0.1500
     24 C24        -9.6904    4.0374   49.7628 C.3     1  ZINC001456096501   -0.1700
     25 C25       -10.7524   -0.5227   54.0388 C.3     1  ZINC001456096501    0.1200
     26 H26       -10.9536   -4.7886   58.8483 H       1  ZINC001456096501    0.0600
     27 H27        -9.9374   -5.3941   57.5182 H       1  ZINC001456096501    0.0600
     28 H28        -9.4262   -3.9661   58.4499 H       1  ZINC001456096501    0.1000
     29 H29       -14.5490   -6.2060   57.2102 H       1  ZINC001456096501    0.1700
     30 H30       -15.1827   -5.6682   54.8972 H       1  ZINC001456096501    0.1500
     31 H31       -13.7732   -4.1129   53.5733 H       1  ZINC001456096501    0.1500
     32 H32       -13.4907   -1.1218   55.4384 H       1  ZINC001456096501    0.0700
     33 H33       -12.2190   -1.2712   56.6831 H       1  ZINC001456096501    0.0700
     34 H34       -13.1218    1.1652   55.6878 H       1  ZINC001456096501    0.0900
     35 H35       -11.4769    0.9204   56.3613 H       1  ZINC001456096501    0.0800
     36 H36       -10.7408    2.5582   55.0563 H       1  ZINC001456096501    0.0800
     37 H37        -9.6505    1.7016   53.9401 H       1  ZINC001456096501    0.0900
     38 H38       -12.1421    4.6382   53.5380 H       1  ZINC001456096501    0.0600
     39 H39       -12.8306    3.7411   52.1634 H       1  ZINC001456096501    0.0900
     40 H40       -13.0412    3.1283   53.8213 H       1  ZINC001456096501    0.0700
     41 H41       -12.8507    3.1268   50.7929 H       1  ZINC001456096501    0.0600
     42 H42       -12.3655    3.8907   49.2602 H       1  ZINC001456096501    0.0600
     43 H43       -11.7625    2.2684   49.6762 H       1  ZINC001456096501    0.0600
     44 H44       -10.4003    5.6316   51.9375 H       1  ZINC001456096501    0.0700
     45 H45       -11.4175    5.9280   50.5072 H       1  ZINC001456096501    0.0700
     46 H46       -12.1119    5.1433   51.9459 H       1  ZINC001456096501    0.0600
     47 H47        -9.4138    3.0614   49.3640 H       1  ZINC001456096501    0.0600
     48 H48       -10.0168    4.6836   48.9481 H       1  ZINC001456096501    0.0700
     49 H49        -8.8287    4.4847   50.2586 H       1  ZINC001456096501    0.0800
     50 H50        -9.7890   -0.4139   54.5368 H       1  ZINC001456096501    0.0800
     51 H51       -10.6108   -0.7708   52.9869 H       1  ZINC001456096501    0.0700
@<TRIPOS>BOND
     1     1     2    1
     2     1    26    1
     3     1    27    1
     4     1    28    1
     5     2     3    1
     6     3     8   ar
     7     3     4   ar
     8     4     5   ar
     9     5     6   ar
    10     5    29    1
    11     6     7   ar
    12     6    30    1
    13     7     8   ar
    14     7    31    1
    15     8     9    1
    16     9    10    2
    17     9    11   am
    18    11    25    1
    19    11    12    1
    20    12    13    1
    21    12    32    1
    22    12    33    1
    23    13    14    1
    24    13    34    1
    25    13    35    1
    26    14    15    1
    27    14    16    1
    28    14    25    1
    29    16    17    1
    30    16    36    1
    31    16    37    1
    32    17    18    1
    33    17    19   am
    34    18    38    1
    35    18    39    1
    36    18    40    1
    37    19    20    2
    38    19    21    1
    39    21    22    1
    40    21    23    1
    41    21    24    1
    42    22    41    1
    43    22    42    1
    44    22    43    1
    45    23    44    1
    46    23    45    1
    47    23    46    1
    48    24    47    1
    49    24    48    1
    50    24    49    1
    51    25    50    1
    52    25    51    1
@<TRIPOS>SUBSTRUCTURE
     1 ZINC001456096501        1 TEMP              0 ****  ****    0 ROOT


##########                                Name:    ZINC000010935976
##########                DOCK_Rotatable_Bonds:                   3
##########                         Heavy_Atoms:                  26
##########                    Molecular_Weight:             391.558
##########                DOCK_Rotatable_Bonds:                   3
##########                       Formal_Charge:         -0.00999979
##########                     HBond_Acceptors:                   7
##########                        HBond_Donors:                   1
##########                         Heavy_Atoms:                  26
##########                          Grid_Score:          -27.051373
##########                     Grid_vdw_energy:          -26.326494
##########                      Grid_es_energy:           -0.724879
##########           Internal_energy_repulsive:          138.863876

@<TRIPOS>MOLECULE
ZINC000010935976
 51 54 1 0 0
SMALL
USER_CHARGES


@<TRIPOS>ATOM
      1 C1         -1.4177    1.8868   49.0802 C.3     1  ZINC000010935976   -0.0800
      2 C2         -2.4106    2.1653   50.1791 C.2     1  ZINC000010935976   -0.2100
      3 C3         -2.1063    2.7305   51.3310 C.2     1  ZINC000010935976   -0.0400
      4 C4         -0.7057    3.1665   51.6765 C.3     1  ZINC000010935976   -0.1000
      5 C5         -3.2245    2.9005   52.2402 C.2     1  ZINC000010935976   -0.2300
      6 C6         -4.4163    2.4224   51.7001 C.2     1  ZINC000010935976    0.0900
      7 N7         -5.5543    2.5046   52.4175 N.2     1  ZINC000010935976   -0.4900
      8 C8         -5.5719    3.0266   53.6204 C.2     1  ZINC000010935976    0.3400
      9 S9         -7.0951    3.1021   54.5029 S.3     1  ZINC000010935976    0.0500
     10 C10        -8.2241    2.4733   53.2357 C.3     1  ZINC000010935976   -0.1000
     11 H11        -7.9237    1.4668   52.9444 H       1  ZINC000010935976    0.1400
     12 C12        -8.1899    3.3942   52.0136 C.3     1  ZINC000010935976   -0.1000
     13 C13        -7.9973    4.8397   52.4349 C.3     1  ZINC000010935976   -0.1300
     14 C14        -9.1720    5.4154   53.2045 C.3     1  ZINC000010935976   -0.1400
     15 C15        -9.3191    4.7330   54.5658 C.3     1  ZINC000010935976    0.0700
     16 N16       -10.1361    3.5201   54.3989 N.am    1  ZINC000010935976   -0.7200
     17 C17        -9.6364    2.4447   53.7814 C.2     1  ZINC000010935976    0.5400
     18 O18       -10.3177    1.4494   53.6545 O.2     1  ZINC000010935976   -0.5200
     19 N19        -4.4384    3.5125   54.2053 N.am    1  ZINC000010935976   -0.5100
     20 C20        -4.5010    4.0873   55.5513 C.3     1  ZINC000010935976    0.1200
     21 C21        -3.8921    3.1058   56.5739 C.3     1  ZINC000010935976   -0.1300
     22 C22        -2.4269    3.5826   56.7320 C.3     1  ZINC000010935976   -0.1300
     23 C23        -2.5613    5.1247   56.6761 C.3     1  ZINC000010935976   -0.1100
     24 C24        -3.6549    5.3709   55.6162 C.3     1  ZINC000010935976   -0.1200
     25 C25        -3.2620    3.4649   53.5505 C.2     1  ZINC000010935976    0.5600
     26 O26        -2.2467    3.8977   54.0681 O.2     1  ZINC000010935976   -0.5000
     27 S27        -4.1200    1.7862   50.0871 S.3     1  ZINC000010935976    0.2100
     28 H28        -1.9291    1.4204   48.2381 H       1  ZINC000010935976    0.0700
     29 H29        -0.9628    2.8227   48.7559 H       1  ZINC000010935976    0.0800
     30 H30        -0.6432    1.2159   49.4517 H       1  ZINC000010935976    0.0800
     31 H31        -0.5563    4.1972   51.3549 H       1  ZINC000010935976    0.0700
     32 H32        -0.5590    3.0972   52.7543 H       1  ZINC000010935976    0.0800
     33 H33         0.0112    2.5203   51.1699 H       1  ZINC000010935976    0.0700
     34 H34        -7.3670    3.0972   51.3634 H       1  ZINC000010935976    0.0900
     35 H35        -9.1289    3.3014   51.4679 H       1  ZINC000010935976    0.0900
     36 H36        -7.1067    4.9041   53.0600 H       1  ZINC000010935976    0.0700
     37 H37        -7.8366    5.4438   51.5421 H       1  ZINC000010935976    0.0800
     38 H38        -9.0136    6.4834   53.3542 H       1  ZINC000010935976    0.0800
     39 H39       -10.0853    5.2666   52.6284 H       1  ZINC000010935976    0.0700
     40 H40        -8.3347    4.4614   54.9471 H       1  ZINC000010935976    0.1100
     41 H41        -9.8099    5.4114   55.2638 H       1  ZINC000010935976    0.0900
     42 H42       -11.0434    3.4993   54.7414 H       1  ZINC000010935976    0.4000
     43 H43        -5.5354    4.3081   55.8149 H       1  ZINC000010935976    0.1000
     44 H44        -4.4192    3.1709   57.5258 H       1  ZINC000010935976    0.0800
     45 H45        -3.9221    2.0865   56.1891 H       1  ZINC000010935976    0.0700
     46 H46        -2.0188    3.2650   57.6915 H       1  ZINC000010935976    0.0600
     47 H47        -1.8113    3.2185   55.9095 H       1  ZINC000010935976    0.1100
     48 H48        -2.8736    5.5158   57.6444 H       1  ZINC000010935976    0.0600
     49 H49        -1.6203    5.5786   56.3657 H       1  ZINC000010935976    0.0700
     50 H50        -3.1977    5.5661   54.6463 H       1  ZINC000010935976    0.0800
     51 H51        -4.2786    6.2145   55.9122 H       1  ZINC000010935976    0.0700
@<TRIPOS>BOND
     1     1     2    1
     2     1    28    1
     3     1    29    1
     4     1    30    1
     5     2    27    1
     6     2     3    2
     7     3     4    1
     8     3     5    1
     9     4    31    1
    10     4    32    1
    11     4    33    1
    12     5    25    1
    13     5     6    2
    14     6     7    1
    15     6    27    1
    16     7     8    2
    17     8     9    1
    18     8    19    1
    19     9    10    1
    20    10    11    1
    21    10    17    1
    22    10    12    1
    23    12    13    1
    24    12    34    1
    25    12    35    1
    26    13    14    1
    27    13    36    1
    28    13    37    1
    29    14    15    1
    30    14    38    1
    31    14    39    1
    32    15    16    1
    33    15    40    1
    34    15    41    1
    35    16    17   am
    36    16    42    1
    37    17    18    2
    38    19    20    1
    39    19    25   am
    40    20    24    1
    41    20    21    1
    42    20    43    1
    43    21    22    1
    44    21    44    1
    45    21    45    1
    46    22    23    1
    47    22    46    1
    48    22    47    1
    49    23    24    1
    50    23    48    1
    51    23    49    1
    52    24    50    1
    53    24    51    1
    54    25    26    2
@<TRIPOS>SUBSTRUCTURE
     1 ZINC000010935976        1 TEMP              0 ****  ****    0 ROOT


##########                                Name:    ZINC000950547210
##########                DOCK_Rotatable_Bonds:                   5
##########                         Heavy_Atoms:                  25
##########                    Molecular_Weight:              346.47
##########                DOCK_Rotatable_Bonds:                   5
##########                       Formal_Charge:         5.58794e-07
##########                     HBond_Acceptors:                   5
##########                        HBond_Donors:                   1
##########                         Heavy_Atoms:                  25
##########                          Grid_Score:          -26.584862
##########                     Grid_vdw_energy:          -26.062452
##########                      Grid_es_energy:           -0.522409
##########           Internal_energy_repulsive:           18.974232

@<TRIPOS>MOLECULE
ZINC000950547210
 55 58 1 0 0
SMALL
USER_CHARGES


@<TRIPOS>ATOM
      1 O1        -11.4781    1.2325   61.8610 O.2     1  ZINC000950547210   -0.5200
      2 C2        -10.8554    0.5070   62.6073 C.2     1  ZINC000950547210    0.5200
      3 N3        -10.3468   -0.6540   62.1494 N.am    1  ZINC000950547210   -0.7300
      4 C4        -10.5511   -1.0426   60.7517 C.3     1  ZINC000950547210    0.1300
      5 H5        -10.5450   -0.1528   60.1222 H       1  ZINC000950547210    0.0900
      6 C6         -9.4279   -1.9857   60.3143 C.3     1  ZINC000950547210   -0.1300
      7 C7         -9.6223   -2.3662   58.8448 C.3     1  ZINC000950547210   -0.1300
      8 C8        -10.9584   -3.0979   58.6834 C.3     1  ZINC000950547210    0.1000
      9 N9        -12.0284   -2.2559   59.2353 N.am    1  ZINC000950547210   -0.6100
     10 C10       -13.1096   -1.9452   58.4930 C.2     1  ZINC000950547210    0.5600
     11 O11       -13.9886   -1.2473   58.9613 O.2     1  ZINC000950547210   -0.5200
     12 C12       -13.2266   -2.4503   57.1163 C.2     1  ZINC000950547210   -0.1400
     13 C13       -13.5715   -3.7111   56.9266 C.2     1  ZINC000950547210   -0.1500
     14 C14       -13.7069   -4.3156   55.5576 C.3     1  ZINC000950547210    0.0900
     15 O15       -13.7743   -3.2849   54.5703 O.3     1  ZINC000950547210   -0.3700
     16 C16       -12.7220   -2.3203   54.6918 C.3     1  ZINC000950547210    0.0600
     17 C17       -12.9551   -1.5116   55.9728 C.3     1  ZINC000950547210   -0.1100
     18 C18       -11.8981   -1.7587   60.6117 C.3     1  ZINC000950547210    0.1000
     19 C19       -10.6452    0.9068   64.0450 C.3     1  ZINC000950547210   -0.1000
     20 H20       -11.4180    0.4526   64.6652 H       1  ZINC000950547210    0.1000
     21 C21       -10.7228    2.4299   64.1674 C.3     1  ZINC000950547210   -0.1100
     22 C22        -9.3988    2.9656   64.7159 C.3     1  ZINC000950547210   -0.0900
     23 C23        -9.1336    2.3561   66.0939 C.3     1  ZINC000950547210   -0.1100
     24 C24        -9.0560    0.8331   65.9715 C.3     1  ZINC000950547210   -0.1100
     25 C25        -9.2693    0.4271   64.5118 C.3     1  ZINC000950547210   -0.0600
     26 C26        -8.1846    1.0647   63.6414 C.3     1  ZINC000950547210   -0.1300
     27 C27        -8.2623    2.5878   63.7638 C.3     1  ZINC000950547210   -0.1200
     28 H28        -9.8454   -1.2324   62.7453 H       1  ZINC000950547210    0.4000
     29 H29        -8.4666   -1.4865   60.4361 H       1  ZINC000950547210    0.0800
     30 H30        -9.4498   -2.8859   60.9285 H       1  ZINC000950547210    0.0700
     31 H31        -9.6253   -1.4641   58.2328 H       1  ZINC000950547210    0.0700
     32 H32        -8.8092   -3.0190   58.5274 H       1  ZINC000950547210    0.0900
     33 H33       -11.1480   -3.2835   57.6262 H       1  ZINC000950547210    0.0900
     34 H34       -10.9238   -4.0449   59.2222 H       1  ZINC000950547210    0.0700
     35 H35       -13.7632   -4.3320   57.7892 H       1  ZINC000950547210    0.1200
     36 H36       -12.8455   -4.9526   55.3569 H       1  ZINC000950547210    0.0700
     37 H37       -14.6156   -4.9161   55.5160 H       1  ZINC000950547210    0.1100
     38 H38       -11.7610   -2.8317   54.7469 H       1  ZINC000950547210    0.0600
     39 H39       -12.7361   -1.6524   53.8305 H       1  ZINC000950547210    0.1000
     40 H40       -13.8066   -0.8458   55.8318 H       1  ZINC000950547210    0.0900
     41 H41       -12.0664   -0.9215   56.1963 H       1  ZINC000950547210    0.0900
     42 H42       -11.9400   -2.5961   61.3083 H       1  ZINC000950547210    0.0700
     43 H43       -12.7077   -1.0613   60.8265 H       1  ZINC000950547210    0.1000
     44 H44       -10.9117    2.8642   63.1857 H       1  ZINC000950547210    0.0700
     45 H45       -11.5325    2.6991   64.8457 H       1  ZINC000950547210    0.0700
     46 H46        -9.4541    4.0507   64.8030 H       1  ZINC000950547210    0.0700
     47 H47        -8.1903    2.7378   66.4847 H       1  ZINC000950547210    0.0600
     48 H48        -9.9433    2.6253   66.7722 H       1  ZINC000950547210    0.0600
     49 H49        -8.0757    0.4913   66.3041 H       1  ZINC000950547210    0.0700
     50 H50        -9.8287    0.3788   66.5916 H       1  ZINC000950547210    0.0600
     51 H51        -9.2140   -0.6579   64.4247 H       1  ZINC000950547210    0.0800
     52 H52        -7.2044    0.7230   63.9740 H       1  ZINC000950547210    0.0600
     53 H53        -8.3365    0.7756   62.6015 H       1  ZINC000950547210    0.0900
     54 H54        -8.4511    3.0221   62.7821 H       1  ZINC000950547210    0.0600
     55 H55        -7.3190    2.9695   64.1546 H       1  ZINC000950547210    0.0600
@<TRIPOS>BOND
     1     1     2    2
     2     2     3   am
     3     2    19    1
     4     3     4    1
     5     3    28    1
     6     4     5    1
     7     4    18    1
     8     4     6    1
     9     6     7    1
    10     6    29    1
    11     6    30    1
    12     7     8    1
    13     7    31    1
    14     7    32    1
    15     8     9    1
    16     8    33    1
    17     8    34    1
    18     9    10   am
    19     9    18    1
    20    10    11    2
    21    10    12    1
    22    12    17    1
    23    12    13    2
    24    13    14    1
    25    13    35    1
    26    14    15    1
    27    14    36    1
    28    14    37    1
    29    15    16    1
    30    16    17    1
    31    16    38    1
    32    16    39    1
    33    17    40    1
    34    17    41    1
    35    18    42    1
    36    18    43    1
    37    19    20    1
    38    19    25    1
    39    19    21    1
    40    21    22    1
    41    21    44    1
    42    21    45    1
    43    22    27    1
    44    22    23    1
    45    22    46    1
    46    23    24    1
    47    23    47    1
    48    23    48    1
    49    24    25    1
    50    24    49    1
    51    24    50    1
    52    25    26    1
    53    25    51    1
    54    26    27    1
    55    26    52    1
    56    26    53    1
    57    27    54    1
    58    27    55    1
@<TRIPOS>SUBSTRUCTURE
     1 ZINC000950547210        1 TEMP              0 ****  ****    0 ROOT


##########                                Name:    ZINC001076281847
##########                DOCK_Rotatable_Bonds:                   4
##########                         Heavy_Atoms:                  24
##########                    Molecular_Weight:             362.883
##########                DOCK_Rotatable_Bonds:                   4
##########                       Formal_Charge:         -0.00999959
##########                     HBond_Acceptors:                   7
##########                        HBond_Donors:                   0
##########                         Heavy_Atoms:                  24
##########                          Grid_Score:          -26.400627
##########                     Grid_vdw_energy:          -27.438166
##########                      Grid_es_energy:            1.037538
##########           Internal_energy_repulsive:            8.606284

@<TRIPOS>MOLECULE
ZINC001076281847
 43 46 1 0 0
SMALL
USER_CHARGES


@<TRIPOS>ATOM
      1 C1        -12.0115   -0.6896   61.4580 C.3     1  ZINC001076281847   -0.0900
      2 C2        -11.0874   -1.0630   60.3276 C.2     1  ZINC001076281847    0.1400
      3 N3        -10.2128   -2.0178   60.4504 N.2     1  ZINC001076281847   -0.4600
      4 S4         -9.3800   -2.1259   58.9768 S.3     1  ZINC001076281847    0.2500
      5 C5        -10.2413   -0.8551   58.2001 C.2     1  ZINC001076281847   -0.2100
      6 C6        -10.0461   -0.3467   56.7949 C.3     1  ZINC001076281847    0.1200
      7 N7        -10.6335    0.9942   56.6734 N.3     1  ZINC001076281847   -0.5000
      8 C8        -11.6825    1.0188   55.6421 C.3     1  ZINC001076281847    0.0300
      9 C9        -11.5404    2.3582   54.8945 C.3     1  ZINC001076281847   -0.1000
     10 H10       -12.2107    3.1340   55.2644 H       1  ZINC001076281847    0.1200
     11 C11       -11.6917    2.0845   53.3750 C.3     1  ZINC001076281847   -0.1300
     12 C12       -10.3390    1.4095   53.0393 C.3     1  ZINC001076281847    0.1000
     13 N13        -9.3481    2.1180   53.8692 N.am    1  ZINC001076281847   -0.6000
     14 C14        -8.0310    2.2199   53.6027 C.2     1  ZINC001076281847    0.5700
     15 O15        -7.3032    2.8308   54.3602 O.2     1  ZINC001076281847   -0.4900
     16 C16        -7.4705    1.5873   52.3869 C.ar    1  ZINC001076281847   -0.0800
     17 C17        -7.3622    0.1970   52.2849 C.ar    1  ZINC001076281847   -0.1800
     18 C18        -6.8338   -0.3512   51.1322 C.ar    1  ZINC001076281847    0.1000
     19 N19        -6.4348    0.4166   50.1379 N.ar    1  ZINC001076281847   -0.4500
     20 C20        -6.5184    1.7307   50.1914 C.ar    1  ZINC001076281847    0.1100
     21 C21        -7.0396    2.3640   51.3051 C.ar    1  ZINC001076281847   -0.0500
     22 Cl22       -7.1459    4.0957   51.3655 Cl      1  ZINC001076281847   -0.0100
     23 C23       -10.0358    2.7064   55.0533 C.3     1  ZINC001076281847    0.1000
     24 H24        -9.8693    3.7820   55.1137 H       1  ZINC001076281847    0.1100
     25 C25        -9.6054    1.9920   56.3418 C.3     1  ZINC001076281847    0.0200
     26 C26       -11.1334   -0.4125   59.1135 C.2     1  ZINC001076281847   -0.1800
     27 H27       -12.9567   -1.2206   61.3450 H       1  ZINC001076281847    0.0700
     28 H28       -11.5524   -0.9630   62.4080 H       1  ZINC001076281847    0.0800
     29 H29       -12.1939    0.3849   61.4385 H       1  ZINC001076281847    0.0900
     30 H30        -8.9805   -0.2983   56.5709 H       1  ZINC001076281847    0.1000
     31 H31       -10.5346   -1.0224   56.0929 H       1  ZINC001076281847    0.1000
     32 H32       -11.5437    0.1887   54.9494 H       1  ZINC001076281847    0.0600
     33 H33       -12.6655    0.9549   56.1087 H       1  ZINC001076281847    0.0900
     34 H34       -12.5240    1.4079   53.1815 H       1  ZINC001076281847    0.0900
     35 H35       -11.8111    3.0157   52.8210 H       1  ZINC001076281847    0.0800
     36 H36       -10.3674    0.3520   53.3019 H       1  ZINC001076281847    0.0800
     37 H37       -10.1058    1.5326   51.9817 H       1  ZINC001076281847    0.0800
     38 H38        -7.6866   -0.4390   53.0953 H       1  ZINC001076281847    0.1800
     39 H39        -6.7461   -1.4241   51.0448 H       1  ZINC001076281847    0.1700
     40 H40        -6.1792    2.3208   49.3529 H       1  ZINC001076281847    0.1700
     41 H41        -9.5002    2.7177   57.1482 H       1  ZINC001076281847    0.1000
     42 H42        -8.6564    1.4805   56.1803 H       1  ZINC001076281847    0.0700
     43 H43       -11.8239    0.3927   58.9103 H       1  ZINC001076281847    0.1400
@<TRIPOS>BOND
     1     1     2    1
     2     1    27    1
     3     1    28    1
     4     1    29    1
     5     2    26    1
     6     2     3    2
     7     3     4    1
     8     4     5    1
     9     5     6    1
    10     5    26    2
    11     6     7    1
    12     6    30    1
    13     6    31    1
    14     7    25    1
    15     7     8    1
    16     8     9    1
    17     8    32    1
    18     8    33    1
    19     9    10    1
    20     9    23    1
    21     9    11    1
    22    11    12    1
    23    11    34    1
    24    11    35    1
    25    12    13    1
    26    12    36    1
    27    12    37    1
    28    13    14   am
    29    13    23    1
    30    14    15    2
    31    14    16    1
    32    16    21   ar
    33    16    17   ar
    34    17    18   ar
    35    17    38    1
    36    18    19   ar
    37    18    39    1
    38    19    20   ar
    39    20    21   ar
    40    20    40    1
    41    21    22    1
    42    23    24    1
    43    23    25    1
    44    25    41    1
    45    25    42    1
    46    26    43    1
@<TRIPOS>SUBSTRUCTURE
     1 ZINC001076281847        1 TEMP              0 ****  ****    0 ROOT


##########                                Name:    ZINC000820901229
##########                DOCK_Rotatable_Bonds:                   3
##########                         Heavy_Atoms:                  18
##########                    Molecular_Weight:             331.233
##########                DOCK_Rotatable_Bonds:                   3
##########                       Formal_Charge:           0.0099999
##########                     HBond_Acceptors:                   5
##########                        HBond_Donors:                   1
##########                         Heavy_Atoms:                  18
##########                          Grid_Score:          -26.042231
##########                     Grid_vdw_energy:          -26.237627
##########                      Grid_es_energy:            0.195397
##########           Internal_energy_repulsive:            2.611934

@<TRIPOS>MOLECULE
ZINC000820901229
 33 35 1 0 0
SMALL
USER_CHARGES


@<TRIPOS>ATOM
      1 O1         -4.6255    4.9348   53.7242 O.2     1  ZINC000820901229   -0.5300
      2 C2         -3.9268    4.0519   54.1844 C.2     1  ZINC000820901229    0.6000
      3 N3         -3.3510    3.1514   53.3634 N.am    1  ZINC000820901229   -0.7100
      4 C4         -3.5713    3.2325   51.9173 C.3     1  ZINC000820901229    0.1600
      5 H5         -3.6328    4.2764   51.6097 H       1  ZINC000820901229    0.1000
      6 C6         -4.8703    2.5000   51.5444 C.3     1  ZINC000820901229   -0.1300
      7 C7         -5.1027    2.5071   50.0365 C.3     1  ZINC000820901229   -0.1100
      8 C8         -3.8941    1.9318   49.2797 C.3     1  ZINC000820901229   -0.1100
      9 C9         -2.6852    2.7599   49.6636 C.3     1  ZINC000820901229    0.0800
     10 H10        -2.8866    3.8140   49.4727 H       1  ZINC000820901229    0.0700
     11 O11        -1.4318    2.4007   49.0934 O.3     1  ZINC000820901229   -0.3700
     12 C12        -0.4347    3.0357   49.9338 C.3     1  ZINC000820901229    0.0500
     13 C13        -1.0596    3.1903   51.3446 C.3     1  ZINC000820901229   -0.1500
     14 C14        -2.4354    2.5432   51.1820 C.3     1  ZINC000820901229   -0.1400
     15 H15        -2.3965    1.4822   51.4288 H       1  ZINC000820901229    0.0900
     16 C16        -3.7053    3.9703   55.6378 C.2     1  ZINC000820901229    0.0100
     17 C17        -4.2620    4.8304   56.5195 C.2     1  ZINC000820901229   -0.2200
     18 S18        -3.7640    4.4030   58.0979 S.3     1  ZINC000820901229    0.3100
     19 C19        -2.8411    3.1007   57.4908 C.2     1  ZINC000820901229   -0.0100
     20 Br20       -1.8232    1.9138   58.5543 Br      1  ZINC000820901229    0.0700
     21 N21        -2.9397    3.0357   56.2087 N.2     1  ZINC000820901229   -0.4100
     22 H22        -2.7905    2.4497   53.7300 H       1  ZINC000820901229    0.4100
     23 H23        -4.8093    1.4682   51.8905 H       1  ZINC000820901229    0.0700
     24 H24        -5.7098    2.9906   52.0367 H       1  ZINC000820901229    0.0700
     25 H25        -5.9842    1.9077   49.8088 H       1  ZINC000820901229    0.0800
     26 H26        -5.2749    3.5317   49.7071 H       1  ZINC000820901229    0.0700
     27 H27        -3.7375    0.8921   49.5671 H       1  ZINC000820901229    0.0700
     28 H28        -4.0634    1.9991   48.2051 H       1  ZINC000820901229    0.0800
     29 H29         0.4567    2.4109   49.9891 H       1  ZINC000820901229    0.0900
     30 H30        -0.1798    4.0161   49.5313 H       1  ZINC000820901229    0.0600
     31 H31        -0.4698    2.6540   52.0881 H       1  ZINC000820901229    0.0800
     32 H32        -1.1526    4.2431   51.6115 H       1  ZINC000820901229    0.0800
     33 H33        -4.9143    5.6535   56.2678 H       1  ZINC000820901229    0.2000
@<TRIPOS>BOND
     1     1     2    2
     2     2     3   am
     3     2    16    1
     4     3     4    1
     5     3    22    1
     6     4     5    1
     7     4    14    1
     8     4     6    1
     9     6     7    1
    10     6    23    1
    11     6    24    1
    12     7     8    1
    13     7    25    1
    14     7    26    1
    15     8     9    1
    16     8    27    1
    17     8    28    1
    18     9    10    1
    19     9    14    1
    20     9    11    1
    21    11    12    1
    22    12    13    1
    23    12    29    1
    24    12    30    1
    25    13    14    1
    26    13    31    1
    27    13    32    1
    28    14    15    1
    29    16    21    1
    30    16    17    2
    31    17    18    1
    32    17    33    1
    33    18    19    1
    34    19    20    1
    35    19    21    2
@<TRIPOS>SUBSTRUCTURE
     1 ZINC000820901229        1 TEMP              0 ****  ****    0 ROOT


##########                                Name:    ZINC000828026236
##########                DOCK_Rotatable_Bonds:                   1
##########                         Heavy_Atoms:                  19
##########                    Molecular_Weight:             383.045
##########                DOCK_Rotatable_Bonds:                   1
##########                       Formal_Charge:                   0
##########                     HBond_Acceptors:                   5
##########                        HBond_Donors:                   0
##########                         Heavy_Atoms:                  19
##########                          Grid_Score:          -25.466228
##########                     Grid_vdw_energy:          -25.180754
##########                      Grid_es_energy:           -0.285474
##########           Internal_energy_repulsive:            2.706987

@<TRIPOS>MOLECULE
ZINC000828026236
 28 30 1 0 0
SMALL
USER_CHARGES


@<TRIPOS>ATOM
      1 N1        -10.8681    2.6324   59.4920 N.1     1  ZINC000828026236   -0.3800
      2 C2        -10.3729    2.0758   60.3495 C.1     1  ZINC000828026236    0.2600
      3 C3         -9.7486    1.3740   61.4304 C.ar    1  ZINC000828026236   -0.0500
      4 C4         -9.1241    2.0746   62.4683 C.ar    1  ZINC000828026236    0.0100
      5 C5         -8.5350    1.3491   63.4903 C.ar    1  ZINC000828026236   -0.1600
      6 Br6        -7.6768    2.2410   64.9200 Br      1  ZINC000828026236   -0.0100
      7 C7         -8.5796   -0.0335   63.4576 C.ar    1  ZINC000828026236    0.1800
      8 N8         -9.1737   -0.6750   62.4696 N.ar    1  ZINC000828026236   -0.5000
      9 C9         -9.7571   -0.0311   61.4714 C.ar    1  ZINC000828026236    0.3600
     10 N10       -10.3687   -0.7456   60.4555 N.3     1  ZINC000828026236   -0.4900
     11 C11       -11.7042   -1.2038   60.8638 C.3     1  ZINC000828026236    0.0500
     12 C12       -12.4951   -1.6551   59.6293 C.3     1  ZINC000828026236    0.1100
     13 N13       -11.6535   -2.5716   58.8555 N.pl3   1  ZINC000828026236   -0.4400
     14 C14       -12.0208   -3.4404   57.8752 C.2     1  ZINC000828026236   -0.0300
     15 Br15      -13.7686   -3.7196   57.2097 Br      1  ZINC000828026236    0.0200
     16 C16       -10.8940   -4.0645   57.4698 C.2     1  ZINC000828026236    0.0300
     17 N17        -9.8674   -3.5818   58.1905 N.2     1  ZINC000828026236   -0.4700
     18 C18       -10.3114   -2.6875   59.0210 C.2     1  ZINC000828026236    0.2300
     19 C19        -9.5272   -1.8751   60.0238 C.3     1  ZINC000828026236    0.1500
     20 H20        -9.1016    3.1544   62.4721 H       1  ZINC000828026236    0.1600
     21 H21        -8.1195   -0.5978   64.2552 H       1  ZINC000828026236    0.1800
     22 H22       -11.6048   -2.0395   61.5565 H       1  ZINC000828026236    0.0700
     23 H23       -12.2333   -0.3872   61.3551 H       1  ZINC000828026236    0.1100
     24 H24       -13.4049   -2.1672   59.9425 H       1  ZINC000828026236    0.1100
     25 H25       -12.7517   -0.7885   59.0200 H       1  ZINC000828026236    0.1000
     26 H26       -10.8290   -4.8199   56.7008 H       1  ZINC000828026236    0.1800
     27 H27        -8.6154   -1.4987   59.5602 H       1  ZINC000828026236    0.1200
     28 H28        -9.2747   -2.4958   60.8835 H       1  ZINC000828026236    0.1000
@<TRIPOS>BOND
     1     1     2    3
     2     2     3    1
     3     3     9   ar
     4     3     4   ar
     5     4     5   ar
     6     4    20    1
     7     5     6    1
     8     5     7   ar
     9     7     8   ar
    10     7    21    1
    11     8     9   ar
    12     9    10    1
    13    10    19    1
    14    10    11    1
    15    11    12    1
    16    11    22    1
    17    11    23    1
    18    12    13    1
    19    12    24    1
    20    12    25    1
    21    13    18    1
    22    13    14    1
    23    14    15    1
    24    14    16    2
    25    16    17    1
    26    16    26    1
    27    17    18    2
    28    18    19    1
    29    19    27    1
    30    19    28    1
@<TRIPOS>SUBSTRUCTURE
     1 ZINC000828026236        1 TEMP              0 ****  ****    0 ROOT


##########                                Name:    ZINC000012087388
##########                DOCK_Rotatable_Bonds:                   5
##########                         Heavy_Atoms:                  29
##########                    Molecular_Weight:              418.52
##########                DOCK_Rotatable_Bonds:                   5
##########                       Formal_Charge:          -0.0499999
##########                     HBond_Acceptors:                  10
##########                        HBond_Donors:                   1
##########                         Heavy_Atoms:                  29
##########                          Grid_Score:          -25.036545
##########                     Grid_vdw_energy:          -25.093035
##########                      Grid_es_energy:            0.056490
##########           Internal_energy_repulsive:           32.436985

@<TRIPOS>MOLECULE
ZINC000012087388
 55 58 1 0 0
SMALL
USER_CHARGES


@<TRIPOS>ATOM
      1 C1         -6.4434    2.9707   53.1607 C.3     1  <0>        -0.6600
      2 S2         -5.7792    4.2925   52.1108 S.o2    1  <0>         2.5100
      3 O3         -6.4287    4.2994   50.8471 O.2     1  <0>        -0.9400
      4 O4         -5.6187    5.4901   52.8587 O.2     1  <0>        -0.9300
      5 C5         -4.1320    3.7815   51.7501 C.ar    1  <0>        -0.8400
      6 C6         -3.7773    3.3877   50.4696 C.ar    1  <0>         0.3000
      7 N7         -2.5319    3.0101   50.2322 N.ar    1  <0>        -0.5800
      8 C8         -1.6290    3.0059   51.2017 C.ar    1  <0>         0.6000
      9 N9         -0.3351    2.6049   50.9182 N.pl3   1  <0>        -0.5700
     10 C10        -0.0702    1.2745   50.3537 C.3     1  <0>         0.1200
     11 C11         0.7612    1.4369   49.0774 C.3     1  <0>        -0.1400
     12 C12         2.0202    2.2476   49.3931 C.3     1  <0>        -0.1200
     13 C13         1.6216    3.6390   49.8903 C.3     1  <0>        -0.1400
     14 C14         0.7995    3.5039   51.1703 C.3     1  <0>         0.1200
     15 N15        -1.9353    3.3768   52.4364 N.ar    1  <0>        -0.5700
     16 C16        -3.1612    3.7701   52.7397 C.ar    1  <0>         0.3200
     17 C17        -3.5011    4.1904   54.1463 C.3     1  <0>        -0.0700
     18 C18        -2.7530    3.2985   55.1398 C.3     1  <0>        -0.1300
     19 C19        -3.1277    3.7060   56.5682 C.3     1  <0>         0.0900
     20 N20        -2.8686    5.1427   56.7334 N.am    1  <0>        -0.6100
     21 C21        -2.0967    5.5896   57.7438 C.2     1  <0>         0.5900
     22 O22        -1.8897    6.7815   57.8697 O.2     1  <0>        -0.5100
     23 C23        -1.5042    4.6354   58.6947 C.2     1  <0>        -0.0400
     24 C24        -2.1803    3.8397   59.6031 C.2     1  <0>        -0.1500
     25 C25        -1.1894    3.1162   60.2706 C.2     1  <0>         0.0000
     26 N26        -0.0309    3.4737   59.7781 N.2     1  <0>        -0.2700
     27 N27        -0.1772    4.3532   58.8535 N.pl3   1  <0>        -0.3900
     28 C28        -3.4668    6.0831   55.7760 C.3     1  <0>         0.1100
     29 C29        -3.0883    5.6490   54.3565 C.3     1  <0>        -0.1200
     30 H30        -6.4203    2.0273   52.6153 H       1  <0>         0.1400
     31 H31        -5.8375    2.8840   54.0627 H       1  <0>         0.1300
     32 H32        -7.4716    3.2067   53.4351 H       1  <0>         0.1400
     33 H33        -4.5089    3.3887   49.6751 H       1  <0>         0.1900
     34 H34         0.4830    0.6745   51.0763 H       1  <0>         0.0700
     35 H35        -1.0141    0.7844   50.1152 H       1  <0>         0.1000
     36 H36         1.0460    0.4543   48.7012 H       1  <0>         0.0800
     37 H37         0.1719    1.9589   48.3233 H       1  <0>         0.0700
     38 H38         2.5965    1.7375   50.1650 H       1  <0>         0.0700
     39 H39         2.6258    2.3437   48.4919 H       1  <0>         0.0700
     40 H40         2.5189    4.2239   50.0928 H       1  <0>         0.0800
     41 H41         1.0243    4.1403   49.1287 H       1  <0>         0.0700
     42 H42         0.4306    4.4840   51.4728 H       1  <0>         0.1000
     43 H43         1.4213    3.0850   51.9615 H       1  <0>         0.0700
     44 H44        -4.5747    4.0902   54.3058 H       1  <0>         0.1000
     45 H45        -3.0300    2.2573   54.9741 H       1  <0>         0.0800
     46 H46        -1.6788    3.4169   54.9976 H       1  <0>         0.0900
     47 H47        -4.1847    3.5030   56.7407 H       1  <0>         0.0800
     48 H48        -2.5244    3.1418   57.2794 H       1  <0>         0.0900
     49 H49        -3.2474    3.7889   59.7620 H       1  <0>         0.1700
     50 H50        -1.3507    2.3909   61.0545 H       1  <0>         0.1900
     51 H51         0.5450    4.7601   58.3497 H       1  <0>         0.4400
     52 H52        -4.5514    6.0741   55.8840 H       1  <0>         0.0800
     53 H53        -3.0872    7.0874   55.9645 H       1  <0>         0.1000
     54 H54        -2.0111    5.7452   54.2217 H       1  <0>         0.0800
     55 H55        -3.6039    6.2808   53.6332 H       1  <0>         0.0900
@<TRIPOS>BOND
     1     1     2    1
     2     1    30    1
     3     1    31    1
     4     1    32    1
     5     2     3    2
     6     2     4    2
     7     2     5    1
     8     5    16   ar
     9     5     6   ar
    10     6     7   ar
    11     6    33    1
    12     7     8   ar
    13     8     9    1
    14     8    15   ar
    15     9    14    1
    16     9    10    1
    17    10    11    1
    18    10    34    1
    19    10    35    1
    20    11    12    1
    21    11    36    1
    22    11    37    1
    23    12    13    1
    24    12    38    1
    25    12    39    1
    26    13    14    1
    27    13    40    1
    28    13    41    1
    29    14    42    1
    30    14    43    1
    31    15    16   ar
    32    16    17    1
    33    17    29    1
    34    17    18    1
    35    17    44    1
    36    18    19    1
    37    18    45    1
    38    18    46    1
    39    19    20    1
    40    19    47    1
    41    19    48    1
    42    20    21   am
    43    20    28    1
    44    21    22    2
    45    21    23    1
    46    23    27    1
    47    23    24    2
    48    24    25    1
    49    24    49    1
    50    25    26    2
    51    25    50    1
    52    26    27    1
    53    27    51    1
    54    28    29    1
    55    28    52    1
    56    28    53    1
    57    29    54    1
    58    29    55    1
@<TRIPOS>SUBSTRUCTURE
     1 <0>         1 TEMP              0 ****  ****    0 ROOT


##########                                Name:    ZINC001010141213
##########                DOCK_Rotatable_Bonds:                   4
##########                         Heavy_Atoms:                  24
##########                    Molecular_Weight:             330.346
##########                DOCK_Rotatable_Bonds:                   4
##########                       Formal_Charge:          -0.0100003
##########                     HBond_Acceptors:                   9
##########                        HBond_Donors:                   1
##########                         Heavy_Atoms:                  24
##########                          Grid_Score:          -24.870682
##########                     Grid_vdw_energy:          -25.449200
##########                      Grid_es_energy:            0.578517
##########           Internal_energy_repulsive:           29.843149

@<TRIPOS>MOLECULE
ZINC001010141213
 42 44 1 0 0
SMALL
USER_CHARGES


@<TRIPOS>ATOM
      1 C1         -9.2949   -1.1983   52.1724 C.3     1  ZINC001010141213   -0.0800
      2 C2        -10.3849   -0.1578   52.1596 C.2     1  ZINC001010141213   -0.1500
      3 C3        -11.7504   -0.3722   52.2312 C.2     1  ZINC001010141213   -0.0400
      4 C4        -12.4365   -1.6699   52.3354 C.2     1  ZINC001010141213    0.6000
      5 O5        -13.2219   -2.0137   51.4727 O.2     1  ZINC001010141213   -0.5100
      6 N6        -12.1944   -2.4776   53.3869 N.am    1  ZINC001010141213   -0.6100
      7 C7        -11.2525   -2.0726   54.4398 C.3     1  ZINC001010141213    0.0900
      8 C8        -11.9734   -2.1340   55.7922 C.3     1  ZINC001010141213    0.0700
      9 N9        -12.6469   -3.4352   55.9067 N.am    1  ZINC001010141213   -0.6000
     10 C10       -12.4056   -4.2424   56.9586 C.2     1  ZINC001010141213    0.5900
     11 O11       -12.9687   -5.3163   57.0424 O.2     1  ZINC001010141213   -0.5200
     12 C12       -11.4557   -3.8215   58.0110 C.2     1  ZINC001010141213    0.0300
     13 N13       -10.4834   -4.6266   58.3758 N.2     1  ZINC001010141213   -0.1800
     14 N14        -9.6338   -4.3078   59.2839 N.am    1  ZINC001010141213   -0.4400
     15 C15        -9.6874   -3.1234   59.9210 C.2     1  ZINC001010141213    0.4800
     16 O16        -8.8649   -2.8499   60.7793 O.2     1  ZINC001010141213   -0.5100
     17 C17       -10.7026   -2.1988   59.5887 C.2     1  ZINC001010141213   -0.1800
     18 C18       -11.5934   -2.5500   58.6184 C.2     1  ZINC001010141213   -0.0400
     19 C19       -13.5888   -3.8402   54.8537 C.3     1  ZINC001010141213    0.1000
     20 C20       -12.8722   -3.7763   53.5042 C.3     1  ZINC001010141213    0.1000
     21 N21       -12.3336    0.8623   52.1857 N.pl3   1  ZINC001010141213   -0.2700
     22 C22       -13.7754    1.1171   52.2342 C.3     1  ZINC001010141213    0.0900
     23 N23       -11.4248    1.7654   52.0945 N.2     1  ZINC001010141213   -0.2800
     24 C24       -10.2317    1.2281   52.0791 C.2     1  ZINC001010141213    0.0100
     25 H25        -8.9913   -1.3939   53.2008 H       1  ZINC001010141213    0.0700
     26 H26        -9.6660   -2.1189   51.7219 H       1  ZINC001010141213    0.0600
     27 H27        -8.4390   -0.8349   51.6037 H       1  ZINC001010141213    0.0700
     28 H28       -10.3998   -2.7514   54.4487 H       1  ZINC001010141213    0.0800
     29 H29       -10.9110   -1.0545   54.2533 H       1  ZINC001010141213    0.1000
     30 H30       -11.2480   -2.0254   56.5986 H       1  ZINC001010141213    0.1400
     31 H31       -12.7111   -1.3338   55.8503 H       1  ZINC001010141213    0.0800
     32 H32        -8.9341   -4.9379   59.5175 H       1  ZINC001010141213    0.4500
     33 H33       -10.7681   -1.2417   60.0847 H       1  ZINC001010141213    0.1700
     34 H34       -12.3882   -1.8795   58.3267 H       1  ZINC001010141213    0.1700
     35 H35       -13.9304   -4.8583   55.0402 H       1  ZINC001010141213    0.1100
     36 H36       -14.4417   -3.1614   54.8449 H       1  ZINC001010141213    0.0800
     37 H37       -13.5987   -3.8850   52.6988 H       1  ZINC001010141213    0.1100
     38 H38       -12.1334   -4.5753   53.4441 H       1  ZINC001010141213    0.0800
     39 H39       -14.0732    1.3257   53.2618 H       1  ZINC001010141213    0.0900
     40 H40       -14.0140    1.9751   51.6055 H       1  ZINC001010141213    0.1000
     41 H41       -14.3117    0.2404   51.8713 H       1  ZINC001010141213    0.0900
     42 H42        -9.2951    1.7613   52.0095 H       1  ZINC001010141213    0.1900
@<TRIPOS>BOND
     1     1     2    1
     2     1    25    1
     3     1    26    1
     4     1    27    1
     5     2    24    1
     6     2     3    2
     7     3     4    1
     8     3    21    1
     9     4     5    2
    10     4     6   am
    11     6    20    1
    12     6     7    1
    13     7     8    1
    14     7    28    1
    15     7    29    1
    16     8     9    1
    17     8    30    1
    18     8    31    1
    19     9    10   am
    20     9    19    1
    21    10    11    2
    22    10    12    1
    23    12    18    1
    24    12    13    2
    25    13    14    1
    26    14    15   am
    27    14    32    1
    28    15    16    2
    29    15    17    1
    30    17    18    2
    31    17    33    1
    32    18    34    1
    33    19    20    1
    34    19    35    1
    35    19    36    1
    36    20    37    1
    37    20    38    1
    38    21    22    1
    39    21    23    1
    40    22    39    1
    41    22    40    1
    42    22    41    1
    43    23    24    2
    44    24    42    1
@<TRIPOS>SUBSTRUCTURE
     1 ZINC001010141213        1 TEMP              0 ****  ****    0 ROOT


##########                                Name:    ZINC000569288350
##########                DOCK_Rotatable_Bonds:                   3
##########                         Heavy_Atoms:                  19
##########                    Molecular_Weight:             393.559
##########                DOCK_Rotatable_Bonds:                   3
##########                       Formal_Charge:           0.0299999
##########                     HBond_Acceptors:                   5
##########                        HBond_Donors:                   1
##########                         Heavy_Atoms:                  19
##########                          Grid_Score:          -24.661589
##########                     Grid_vdw_energy:          -23.261395
##########                      Grid_es_energy:           -1.400193
##########           Internal_energy_repulsive:           18.063129

@<TRIPOS>MOLECULE
ZINC000569288350
 26 27 1 0 0
SMALL
USER_CHARGES


@<TRIPOS>ATOM
      1 O1        -12.6380   -1.3922   58.4708 O.2     1  ZINC000569288350   -0.4800
      2 C2        -11.4295   -1.2633   58.5072 C.2     1  ZINC000569288350    0.5700
      3 N3        -10.6960   -1.4693   57.3954 N.am    1  ZINC000569288350   -0.6600
      4 C4        -11.3246   -1.8369   56.2008 C.ar    1  ZINC000569288350    0.1800
      5 C5        -11.3040   -0.9771   55.1108 C.ar    1  ZINC000569288350   -0.1200
      6 C6        -11.9253   -1.3416   53.9318 C.ar    1  ZINC000569288350   -0.0600
      7 C7        -12.5683   -2.5614   53.8352 C.ar    1  ZINC000569288350   -0.1500
      8 C8        -12.5917   -3.4230   54.9196 C.ar    1  ZINC000569288350    0.1300
      9 F9        -13.2205   -4.6147   54.8221 F       1  ZINC000569288350   -0.1200
     10 C10       -11.9657   -3.0657   56.1012 C.ar    1  ZINC000569288350   -0.1000
     11 Cl11      -11.9939   -4.1446   57.4608 Cl      1  ZINC000569288350   -0.0400
     12 C12       -10.7662   -0.8754   59.7677 C.ar    1  ZINC000569288350   -0.1400
     13 C13       -11.0821    0.3402   60.3830 C.ar    1  ZINC000569288350    0.1400
     14 F14       -11.9965    1.1642   59.8260 F       1  ZINC000569288350   -0.1200
     15 C15       -10.4559    0.6956   61.5638 C.ar    1  ZINC000569288350   -0.1300
     16 C16        -9.5203   -0.1470   62.1342 C.ar    1  ZINC000569288350   -0.0600
     17 C17        -9.2030   -1.3512   61.5297 C.ar    1  ZINC000569288350   -0.0900
     18 C18        -9.8237   -1.7233   60.3554 C.ar    1  ZINC000569288350   -0.0500
     19 I19        -9.3400   -3.5469   59.4445 I       1  ZINC000569288350    0.0000
     20 H20        -9.7323   -1.3625   57.4235 H       1  ZINC000569288350    0.4200
     21 H21       -10.8027   -0.0232   55.1846 H       1  ZINC000569288350    0.1600
     22 H22       -11.9089   -0.6723   53.0844 H       1  ZINC000569288350    0.1500
     23 H23       -13.0536   -2.8433   52.9125 H       1  ZINC000569288350    0.1500
     24 H24       -10.6981    1.6338   62.0409 H       1  ZINC000569288350    0.1500
     25 H25        -9.0341    0.1358   63.0561 H       1  ZINC000569288350    0.1500
     26 H26        -8.4707   -2.0039   61.9817 H       1  ZINC000569288350    0.1500
@<TRIPOS>BOND
     1     1     2    2
     2     2     3   am
     3     2    12    1
     4     3     4    1
     5     3    20    1
     6     4    10   ar
     7     4     5   ar
     8     5     6   ar
     9     5    21    1
    10     6     7   ar
    11     6    22    1
    12     7     8   ar
    13     7    23    1
    14     8     9    1
    15     8    10   ar
    16    10    11    1
    17    12    18   ar
    18    12    13   ar
    19    13    14    1
    20    13    15   ar
    21    15    16   ar
    22    15    24    1
    23    16    17   ar
    24    16    25    1
    25    17    18   ar
    26    17    26    1
    27    18    19    1
@<TRIPOS>SUBSTRUCTURE
     1 ZINC000569288350        1 TEMP              0 ****  ****    0 ROOT


##########                                Name:    ZINC000793092912
##########                DOCK_Rotatable_Bonds:                   4
##########                         Heavy_Atoms:                  26
##########                    Molecular_Weight:               407.2
##########                DOCK_Rotatable_Bonds:                   4
##########                       Formal_Charge:         2.90573e-07
##########                     HBond_Acceptors:                  10
##########                        HBond_Donors:                   1
##########                         Heavy_Atoms:                  26
##########                          Grid_Score:          -23.398270
##########                     Grid_vdw_energy:          -21.579718
##########                      Grid_es_energy:           -1.818552
##########           Internal_energy_repulsive:           10.188456

@<TRIPOS>MOLECULE
ZINC000793092912
 40 43 1 0 0
SMALL
USER_CHARGES


@<TRIPOS>ATOM
      1 C1        -12.7304    5.8432   61.3263 C.3     1  ZINC000793092912   -0.1300
      2 C2        -11.8877    4.5733   61.1915 C.3     1  ZINC000793092912   -0.0800
      3 C3        -10.5975    4.5637   61.9968 C.3     1  ZINC000793092912   -0.1100
      4 C4        -10.4496    3.3110   62.8397 C.3     1  ZINC000793092912    0.1100
      5 N5        -10.8667    2.1190   62.1209 N.am    1  ZINC000793092912   -0.5700
      6 C6         -9.9952    1.0988   61.9939 C.2     1  ZINC000793092912    0.5100
      7 O7         -8.8847    1.1857   62.4756 O.2     1  ZINC000793092912   -0.5100
      8 C8        -10.3961   -0.1387   61.2604 C.2     1  ZINC000793092912    0.5100
      9 O9        -11.2036   -0.9006   61.7514 O.2     1  ZINC000793092912   -0.4900
     10 N10        -9.8613   -0.4097   60.0534 N.am    1  ZINC000793092912   -0.6400
     11 C11       -10.2368   -1.5687   59.3665 C.ar    1  ZINC000793092912    0.1600
     12 C12        -9.5838   -2.7680   59.6189 C.ar    1  ZINC000793092912   -0.1200
     13 C13        -9.9536   -3.9139   58.9409 C.ar    1  ZINC000793092912   -0.0600
     14 C14       -10.9762   -3.8697   58.0072 C.ar    1  ZINC000793092912    0.0200
     15 O15       -11.5213   -4.8410   57.2168 O.3     1  ZINC000793092912   -0.2800
     16 C16       -12.7860   -4.3128   56.7757 C.3     1  ZINC000793092912    0.5700
     17 F17       -13.0734   -4.7457   55.4768 F       1  ZINC000793092912   -0.1100
     18 F18       -13.8083   -4.6869   57.6545 F       1  ZINC000793092912   -0.1500
     19 O19       -12.5892   -2.8868   56.8017 O.3     1  ZINC000793092912   -0.2800
     20 C20       -11.6334   -2.6678   57.7515 C.ar    1  ZINC000793092912    0.0500
     21 C21       -11.2667   -1.5216   58.4354 C.ar    1  ZINC000793092912   -0.0900
     22 C22       -12.1916    1.9871   61.5338 C.3     1  ZINC000793092912    0.1100
     23 C23       -12.6284    3.2854   60.8717 C.3     1  ZINC000793092912   -0.1200
     24 H24       -13.7067    3.3945   60.7553 H       1  ZINC000793092912    0.1400
     25 C25       -11.7925    3.9501   59.7885 C.3     1  ZINC000793092912    0.0000
     26 Cl26      -12.6699    4.7597   58.4373 Cl      1  ZINC000793092912   -0.0800
     27 Cl27      -10.2287    3.1695   59.3454 Cl      1  ZINC000793092912   -0.0900
     28 H28       -13.4553    5.7147   62.1301 H       1  ZINC000793092912    0.0800
     29 H29       -12.0804    6.6880   61.5549 H       1  ZINC000793092912    0.0700
     30 H30       -13.2556    6.0319   60.3901 H       1  ZINC000793092912    0.0700
     31 H31        -9.7530    4.6291   61.3108 H       1  ZINC000793092912    0.0900
     32 H32       -10.5847    5.4340   62.6530 H       1  ZINC000793092912    0.1000
     33 H33        -9.4052    3.2016   63.1317 H       1  ZINC000793092912    0.1100
     34 H34       -11.0583    3.4144   63.7381 H       1  ZINC000793092912    0.0800
     35 H35        -9.2160    0.1990   59.6610 H       1  ZINC000793092912    0.4300
     36 H36        -8.7857   -2.8052   60.3458 H       1  ZINC000793092912    0.1500
     37 H37        -9.4445   -4.8455   59.1390 H       1  ZINC000793092912    0.1500
     38 H38       -11.7786   -0.5905   58.2427 H       1  ZINC000793092912    0.1600
     39 H39       -12.1695    1.2051   60.7747 H       1  ZINC000793092912    0.1400
     40 H40       -12.9010    1.7072   62.3126 H       1  ZINC000793092912    0.1000
@<TRIPOS>BOND
     1     1     2    1
     2     1    28    1
     3     1    29    1
     4     1    30    1
     5     2    23    1
     6     2    25    1
     7     2     3    1
     8     3     4    1
     9     3    31    1
    10     3    32    1
    11     4     5    1
    12     4    33    1
    13     4    34    1
    14     5     6   am
    15     5    22    1
    16     6     7    2
    17     6     8    1
    18     8     9    2
    19     8    10   am
    20    10    11    1
    21    10    35    1
    22    11    21   ar
    23    11    12   ar
    24    12    13   ar
    25    12    36    1
    26    13    14   ar
    27    13    37    1
    28    14    20   ar
    29    14    15    1
    30    15    16    1
    31    16    17    1
    32    16    18    1
    33    16    19    1
    34    19    20    1
    35    20    21   ar
    36    21    38    1
    37    22    23    1
    38    22    39    1
    39    22    40    1
    40    23    24    1
    41    23    25    1
    42    25    26    1
    43    25    27    1
@<TRIPOS>SUBSTRUCTURE
     1 ZINC000793092912        1 TEMP              0 ****  ****    0 ROOT

